
     RDKit          3D

 11 12  0  0  0  0  0  0  0  0999 V2000
   -1.4141    2.2706    0.2881 O   0  0  0  0  0  0  0  0  0  0  0  0
   -1.2336    0.9440   -0.0697 C   0  0  0  0  0  0  0  0  0  0  0  0
   -2.2914    0.0821    0.0948 C   0  0  0  0  0  0  0  0  0  0  0  0
   -2.0785   -1.2700   -0.1435 C   0  0  0  0  0  0  0  0  0  0  0  0
   -0.7991   -1.7474    0.1136 C   0  0  0  0  0  0  0  0  0  0  0  0
    0.2928   -0.8926    0.1103 C   0  0  0  0  0  0  0  0  0  0  0  0
    1.5417   -1.3048    0.5306 C   0  0  0  0  0  0  0  0  0  0  0  0
    2.6000   -0.5120    0.1048 C   0  0  0  0  0  0  0  0  0  0  0  0
    2.3077    0.8012   -0.2273 C   0  0  0  0  0  0  0  0  0  0  0  0
    1.0555    1.2136   -0.5341 N   0  0  0  0  0  0  0  0  0  0  0  0
    0.0191    0.4154   -0.2677 C   0  0  0  0  0  0  0  0  0  0  0  0
  1  2  1  0
  2  3  2  0
  3  4  1  0
  4  5  2  0
  5  6  1  0
  6  7  2  0
  7  8  1  0
  8  9  2  0
  9 10  1  0
 10 11  2  0
 11  2  1  0
 11  6  1  0
M  END
>  <zinc_id>  (1) 
ZINC000000008492

>  <smiles>  (1) 
Oc1cccc2cccnc12

$$$$

     RDKit          3D

  6  5  0  0  0  0  0  0  0  0999 V2000
   -1.9904   -0.7262   -0.3092 O   0  0  0  0  0  0  0  0  0  0  0  0
   -1.2809   -0.0590    0.6630 C   0  0  0  0  0  0  0  0  0  0  0  0
    0.0692    0.4096    0.2334 C   0  0  0  0  0  0  0  0  0  0  0  0
    0.0848    1.6430   -0.3705 O   0  0  0  0  0  0  0  0  0  0  0  0
    0.9253   -0.6251   -0.4094 C   0  0  0  0  0  0  0  0  0  0  0  0
    2.1920   -0.6423    0.1927 O   0  0  0  0  0  0  0  0  0  0  0  0
  1  2  1  0
  2  3  1  0
  3  4  1  0
  3  5  1  0
  5  6  1  0
M  END
>  <zinc_id>  (2) 
ZINC000000895048

>  <smiles>  (2) 
OCC(O)CO

$$$$

     RDKit          3D

  5  4  0  0  0  0  0  0  0  0999 V2000
   -1.0458    1.2521    0.1949 C   0  0  0  0  0  0  0  0  0  0  0  0
   -0.3614   -0.0450   -0.6290 C   0  0  2  0  0  0  0  0  0  0  0  0
   -1.3068   -1.0393    0.0879 O   0  0  0  0  0  0  0  0  0  0  0  0
    0.8003   -0.2327    0.5742 C   0  0  0  0  0  0  0  0  0  0  0  0
    1.9137    0.0648   -0.2280 O   0  0  0  0  0  0  0  0  0  0  0  0
  2  1  1  1
  2  3  1  0
  2  4  1  0
  4  5  1  0
M  END
>  <zinc_id>  (3) 
ZINC000000895316

>  <smiles>  (3) 
C[C@H](O)CO

$$$$

     RDKit          3D

  9  9  0  0  0  0  0  0  0  0999 V2000
    1.7643    1.3434    0.0611 O   0  0  0  0  0  0  0  0  0  0  0  0
    1.6304    0.2208    0.3212 C   0  0  0  0  0  0  0  0  0  0  0  0
    2.8116   -0.2320   -0.2606 O   0  0  0  0  0  0  0  0  0  0  0  0
    0.4477   -0.3575   -0.6294 C   0  0  2  0  0  0  0  0  0  0  0  0
   -0.5744    0.8982   -0.3513 C   0  0  0  0  0  0  0  0  0  0  0  0
   -1.6792    0.1567    0.6076 C   0  0  1  0  0  0  0  0  0  0  0  0
   -2.8355    0.5034   -0.3190 O   0  0  0  0  0  0  0  0  0  0  0  0
   -1.4283   -1.2843   -0.1592 C   0  0  0  0  0  0  0  0  0  0  0  0
   -0.1367   -1.2486    0.5344 N   0  0  0  0  0  0  0  0  0  0  0  0
  1  2  2  0
  2  3  1  0
  4  2  1  1
  4  5  1  0
  5  6  1  0
  6  7  1  6
  6  8  1  0
  8  9  1  0
  9  4  1  0
M  END
>  <zinc_id>  (4) 
ZINC000000901791

>  <smiles>  (4) 
O=C(O)[C@@H]1C[C@@H](O)CN1

$$$$

     RDKit          3D

 13 12  0  0  0  0  0  0  0  0999 V2000
   -3.3693    0.1365   -0.6562 O   0  0  0  0  0  0  0  0  0  0  0  0
   -2.4650    0.5419   -0.0155 C   0  0  0  0  0  0  0  0  0  0  0  0
   -2.0565    1.8205   -0.0482 O   0  0  0  0  0  0  0  0  0  0  0  0
   -1.6003   -0.5970    0.7158 C   0  0  2  0  0  0  0  0  0  0  0  0
   -1.8152    0.0351    2.0734 O   0  0  0  0  0  0  0  0  0  0  0  0
   -0.1140    0.2337    0.5260 C   0  0  1  0  0  0  0  0  0  0  0  0
    0.5351   -0.6334    1.5582 O   0  0  0  0  0  0  0  0  0  0  0  0
    0.2132   -0.7016   -0.8709 C   0  0  2  0  0  0  0  0  0  0  0  0
    1.0559   -1.7646   -0.2424 O   0  0  0  0  0  0  0  0  0  0  0  0
    1.4980    0.3258   -1.4008 C   0  0  2  0  0  0  0  0  0  0  0  0
    2.5007   -0.7755   -1.6595 O   0  0  0  0  0  0  0  0  0  0  0  0
    2.1277    0.6520    0.0730 C   0  0  0  0  0  0  0  0  0  0  0  0
    3.4898    0.7266   -0.0528 O   0  0  0  0  0  0  0  0  0  0  0  0
  1  2  2  0
  2  3  1  0
  4  2  1  6
  4  5  1  0
  4  6  1  0
  6  7  1  1
  6  8  1  0
  8  9  1  1
  8 10  1  0
 10 11  1  6
 10 12  1  0
 12 13  1  0
M  END
>  <zinc_id>  (5) 
ZINC000001531008

>  <smiles>  (5) 
O=C(O)[C@H](O)[C@@H](O)[C@H](O)[C@H](O)CO

$$$$

     RDKit          3D

 10  9  0  0  0  0  0  0  0  0999 V2000
    3.7520    0.3775    0.5514 N   0  0  0  0  0  0  0  0  0  0  0  0
    3.2671   -0.2505   -0.6394 C   0  0  0  0  0  0  0  0  0  0  0  0
    2.1904    0.6305   -1.2092 C   0  0  0  0  0  0  0  0  0  0  0  0
    0.8907   -0.1614   -1.0896 C   0  0  0  0  0  0  0  0  0  0  0  0
   -0.0265    0.7661   -0.2990 C   0  0  0  0  0  0  0  0  0  0  0  0
   -0.9395   -0.3650    0.5337 C   0  0  2  0  0  0  0  0  0  0  0  0
   -1.5292   -0.9447   -0.8439 N   0  0  0  0  0  0  0  0  0  0  0  0
   -2.1546    0.7244    0.7256 C   0  0  0  0  0  0  0  0  0  0  0  0
   -2.0548    1.0855    1.9438 O   0  0  0  0  0  0  0  0  0  0  0  0
   -3.3955    0.3307    0.3267 O   0  0  0  0  0  0  0  0  0  0  0  0
  1  2  1  0
  2  3  1  0
  3  4  1  0
  4  5  1  0
  6  5  1  6
  6  7  1  0
  6  8  1  0
  8  9  2  0
  8 10  1  0
M  END
>  <zinc_id>  (6) 
ZINC000001532522

>  <smiles>  (6) 
NCCCC[C@H](N)C(=O)O

$$$$

     RDKit          3D

 12 12  0  0  0  0  0  0  0  0999 V2000
   -0.7922    2.5952   -0.3911 O   0  0  0  0  0  0  0  0  0  0  0  0
   -0.4784    1.4153   -0.3619 C   0  0  0  0  0  0  0  0  0  0  0  0
    0.6561    0.9064   -0.9421 O   0  0  0  0  0  0  0  0  0  0  0  0
    1.1413   -0.0012    0.2195 C   0  0  2  0  0  0  0  0  0  0  0  0
    2.5061   -0.4523   -0.6002 C   0  0  0  0  0  0  0  0  0  0  0  0
    3.3683    0.0468    0.4049 O   0  0  0  0  0  0  0  0  0  0  0  0
    0.1184   -1.2450   -0.4235 C   0  0  1  0  0  0  0  0  0  0  0  0
    0.6493   -2.2665    0.5508 O   0  0  0  0  0  0  0  0  0  0  0  0
   -1.0608   -0.7615    0.7342 C   0  0  2  0  0  0  0  0  0  0  0  0
   -1.9955   -1.8329    0.2310 O   0  0  0  0  0  0  0  0  0  0  0  0
   -1.7759    0.4238   -0.3222 C   0  0  1  0  0  0  0  0  0  0  0  0
   -2.3367    1.1718    0.9006 O   0  0  0  0  0  0  0  0  0  0  0  0
  1  2  2  0
  2  3  1  0
  3  4  1  0
  4  5  1  6
  5  6  1  0
  4  7  1  0
  7  8  1  1
  7  9  1  0
  9 10  1  6
  9 11  1  0
 11 12  1  1
 11  2  1  0
M  END
>  <zinc_id>  (7) 
ZINC000002539702

>  <smiles>  (7) 
O=C1O[C@H](CO)[C@@H](O)[C@H](O)[C@H]1O

$$$$

     RDKit          3D

  7  6  0  0  0  0  0  0  0  0999 V2000
    2.5493   -0.4968   -0.1707 N   0  0  0  0  0  0  0  0  0  0  0  0
    1.7288    0.7136   -0.1164 C   0  0  0  0  0  0  0  0  0  0  0  0
    0.6079    0.4004    0.8476 C   0  0  0  0  0  0  0  0  0  0  0  0
   -0.8829   -0.0869    0.0424 S   0  0  0  0  0  0  0  0  0  0  0  0
   -1.8544   -0.4914    1.1270 O   0  0  0  0  0  0  0  0  0  0  0  0
   -0.6640   -1.2588   -0.8888 O   0  0  0  0  0  0  0  0  0  0  0  0
   -1.4847    1.2200   -0.8412 O   0  0  0  0  0  0  0  0  0  0  0  0
  1  2  1  0
  2  3  1  0
  3  4  1  0
  4  5  2  0
  4  6  2  0
  4  7  1  0
M  END
>  <zinc_id>  (8) 
ZINC000003809490

>  <smiles>  (8) 
NCCS(=O)(=O)O

$$$$

     RDKit          3D

 12 11  0  0  0  0  0  0  0  0999 V2000
   -3.0792   -0.1435    1.0264 O   0  0  0  0  0  0  0  0  0  0  0  0
   -2.8547   -0.8090    0.5005 C   0  0  0  0  0  0  0  0  0  0  0  0
   -1.2554   -1.1059    0.8792 C   0  0  1  0  0  0  0  0  0  0  0  0
   -1.3292   -2.4682    0.1699 O   0  0  0  0  0  0  0  0  0  0  0  0
   -0.6344   -0.2677   -0.5310 C   0  0  1  0  0  0  0  0  0  0  0  0
   -1.6844    0.8211   -0.4936 O   0  0  0  0  0  0  0  0  0  0  0  0
    0.5311    0.5743    0.4413 C   0  0  2  0  0  0  0  0  0  0  0  0
    0.0238    1.9741    0.1624 O   0  0  0  0  0  0  0  0  0  0  0  0
    1.6992    0.6076   -0.8659 C   0  0  1  0  0  0  0  0  0  0  0  0
    2.2295    1.9981   -0.4738 O   0  0  0  0  0  0  0  0  0  0  0  0
    2.8869   -0.1183    0.0505 C   0  0  0  0  0  0  0  0  0  0  0  0
    3.4669   -1.0625   -0.7745 O   0  0  0  0  0  0  0  0  0  0  0  0
  1  2  1  0
  3  2  1  6
  3  4  1  0
  3  5  1  0
  5  6  1  1
  5  7  1  0
  7  8  1  6
  7  9  1  0
  9 10  1  1
  9 11  1  0
 11 12  1  0
M  END
>  <zinc_id>  (9) 
ZINC000018279893

>  <smiles>  (9) 
OC[C@H](O)[C@@H](O)[C@H](O)[C@H](O)CO

$$$$

     RDKit          3D

 22 22  0  0  0  0  0  0  0  0999 V2000
   -0.9773   -2.7594   -2.2637 C   0  0  0  0  0  0  0  0  0  0  0  0
   -0.0654   -2.0868   -1.2859 C   0  0  0  0  0  0  0  0  0  0  0  0
   -0.7167   -1.4078   -0.1576 C   0  0  0  0  0  0  0  0  0  0  0  0
   -1.0378   -0.1307   -0.2012 C   0  0  0  0  0  0  0  0  0  0  0  0
   -2.3357    0.3967    0.2097 C   0  0  0  0  0  0  0  0  0  0  0  0
   -3.1719   -0.2633    0.9766 C   0  0  0  0  0  0  0  0  0  0  0  0
   -2.7118   -1.5095    1.6277 C   0  0  0  0  0  0  0  0  0  0  0  0
   -4.5493    0.2660    1.1025 C   0  0  0  0  0  0  0  0  0  0  0  0
   -5.1350    0.7024   -0.2090 C   0  0  0  0  0  0  0  0  0  0  0  0
   -4.1795    1.4873   -1.0636 C   0  0  0  0  0  0  0  0  0  0  0  0
   -2.8102    1.6211   -0.4674 C   0  0  0  0  0  0  0  0  0  0  0  0
   -1.8680    2.0830   -1.5645 C   0  0  0  0  0  0  0  0  0  0  0  0
   -2.8553    2.7475    0.5517 C   0  0  0  0  0  0  0  0  0  0  0  0
    1.0662   -1.5167   -1.7052 C   0  0  0  0  0  0  0  0  0  0  0  0
    2.0732   -1.2794   -0.6879 C   0  0  0  0  0  0  0  0  0  0  0  0
    2.4464   -0.0945   -0.2625 C   0  0  0  0  0  0  0  0  0  0  0  0
    3.3680   -0.0652    0.8802 C   0  0  0  0  0  0  0  0  0  0  0  0
    2.8497   -0.5742    2.1879 C   0  0  0  0  0  0  0  0  0  0  0  0
    4.6425   -0.3181    0.5847 C   0  0  0  0  0  0  0  0  0  0  0  0
    5.2116    0.5290   -0.4708 C   0  0  0  0  0  0  0  0  0  0  0  0
    6.3161    1.1108   -0.2529 O   0  0  0  0  0  0  0  0  0  0  0  0
    4.4401    1.0615   -1.4961 O   0  0  0  0  0  0  0  0  0  0  0  0
  1  2  1  0
  2  3  1  0
  3  4  2  0
  4  5  1  0
  5  6  2  0
  6  7  1  0
  6  8  1  0
  8  9  1  0
  9 10  1  0
 10 11  1  0
 11 12  1  0
 11 13  1  0
  2 14  2  0
 14 15  1  0
 15 16  2  0
 16 17  1  0
 17 18  1  0
 17 19  2  0
 19 20  1  0
 20 21  2  0
 20 22  1  0
 11  5  1  0
M  END
>  <zinc_id>  (10) 
ZINC000033943508

>  <smiles>  (10) 
CC1=C(/C=C/C(C)=C\C=C\C(C)=C/C(=O)O)C(C)(C)CCC1

$$$$

     RDKit          3D

 10  9  0  0  0  0  0  0  0  0999 V2000
   -2.5236    1.5027    0.6160 C   0  0  0  0  0  0  0  0  0  0  0  0
   -1.9154    0.2731    0.9897 O   0  0  0  0  0  0  0  0  0  0  0  0
   -1.3203   -0.4704   -0.0151 C   0  0  0  0  0  0  0  0  0  0  0  0
   -1.3456   -0.1248   -1.2326 O   0  0  0  0  0  0  0  0  0  0  0  0
   -0.5410   -1.6180    0.4091 C   0  0  0  0  0  0  0  0  0  0  0  0
    0.7638   -1.5636    0.3102 C   0  0  0  0  0  0  0  0  0  0  0  0
    1.5074   -0.3903   -0.0925 C   0  0  0  0  0  0  0  0  0  0  0  0
    2.4738   -0.5470   -0.8793 O   0  0  0  0  0  0  0  0  0  0  0  0
    1.0323    0.9132    0.0458 O   0  0  0  0  0  0  0  0  0  0  0  0
    1.8685    2.0250   -0.1514 C   0  0  0  0  0  0  0  0  0  0  0  0
  1  2  1  0
  2  3  1  0
  3  4  2  0
  3  5  1  0
  5  6  2  0
  6  7  1  0
  7  8  2  0
  7  9  1  0
  9 10  1  0
M  END
>  <zinc_id>  (11) 
ZINC000100017404

>  <smiles>  (11) 
COC(=O)/C=C\C(=O)OC

$$$$

     RDKit          3D

  9  9  0  0  0  0  0  0  0  0999 V2000
    2.6271   -0.8375    0.1035 O   0  0  0  0  0  0  0  0  0  0  0  0
    1.7121    0.0044    0.0164 C   0  0  0  0  0  0  0  0  0  0  0  0
    2.0719    1.3109   -0.3137 O   0  0  0  0  0  0  0  0  0  0  0  0
    0.2871   -0.3426    0.1271 C   0  0  0  0  0  0  0  0  0  0  0  0
   -0.4597   -0.0331    1.2577 C   0  0  0  0  0  0  0  0  0  0  0  0
   -1.7274    0.5122    1.0874 C   0  0  0  0  0  0  0  0  0  0  0  0
   -2.3585    0.4191   -0.1474 C   0  0  0  0  0  0  0  0  0  0  0  0
   -1.7025   -0.2377   -1.1819 C   0  0  0  0  0  0  0  0  0  0  0  0
   -0.4500   -0.7958   -0.9490 C   0  0  0  0  0  0  0  0  0  0  0  0
  1  2  2  0
  2  3  1  0
  2  4  1  0
  4  5  2  0
  5  6  1  0
  6  7  2  0
  7  8  1  0
  8  9  2  0
  9  4  1  0
M  END
>  <zinc_id>  (12) 
ZINC000000001011

>  <smiles>  (12) 
O=C(O)c1ccccc1

$$$$

     RDKit          3D

  5  4  0  0  0  0  0  0  0  0999 V2000
   -0.4703    1.3410   -0.1729 C   0  0  0  0  0  0  0  0  0  0  0  0
   -0.6175   -0.0731    0.7257 C   0  0  1  0  0  0  0  0  0  0  0  0
   -1.3354   -0.7716   -0.4504 O   0  0  0  0  0  0  0  0  0  0  0  0
    0.8463   -0.7234    0.2327 C   0  0  0  0  0  0  0  0  0  0  0  0
    1.5769    0.2270   -0.3351 O   0  0  0  0  0  0  0  0  0  0  0  0
  2  1  1  6
  2  3  1  0
  2  4  1  0
  4  5  1  0
M  END
>  <zinc_id>  (13) 
ZINC000000895318

>  <smiles>  (13) 
C[C@@H](O)CO

$$$$

     RDKit          3D

 22 22  0  0  0  0  0  0  0  0999 V2000
   -3.3827    2.3271    2.2123 C   0  0  0  0  0  0  0  0  0  0  0  0
   -4.1887    1.1607    2.0694 O   0  0  0  0  0  0  0  0  0  0  0  0
   -4.1058    0.5016    0.8432 C   0  0  0  0  0  0  0  0  0  0  0  0
   -2.8415    0.3478    0.2966 C   0  0  0  0  0  0  0  0  0  0  0  0
   -2.6450   -0.1799   -0.9751 C   0  0  0  0  0  0  0  0  0  0  0  0
   -1.2901   -0.0856   -1.5433 C   0  0  0  0  0  0  0  0  0  0  0  0
   -0.5920   -1.3403   -1.6198 N   0  0  0  0  0  0  0  0  0  0  0  0
   -0.0631   -2.0271   -0.4806 C   0  0  0  0  0  0  0  0  0  0  0  0
   -0.7956   -1.9489    0.5516 O   0  0  0  0  0  0  0  0  0  0  0  0
    1.4007   -2.3073   -0.3217 C   0  0  0  0  0  0  0  0  0  0  0  0
    1.8463   -1.5112    0.8698 C   0  0  0  0  0  0  0  0  0  0  0  0
    3.1405   -0.7917    0.6908 C   0  0  0  0  0  0  0  0  0  0  0  0
    3.6541   -0.7735   -0.7173 C   0  0  0  0  0  0  0  0  0  0  0  0
    4.8269    0.1230   -0.8095 C   0  0  0  0  0  0  0  0  0  0  0  0
    5.9590   -0.0504   -0.1527 C   0  0  0  0  0  0  0  0  0  0  0  0
    6.7426    1.0803    0.4412 C   0  0  0  0  0  0  0  0  0  0  0  0
    6.1772    1.2888    1.8425 C   0  0  0  0  0  0  0  0  0  0  0  0
    6.3527    2.3259   -0.3362 C   0  0  0  0  0  0  0  0  0  0  0  0
   -3.7060    0.0182   -1.8514 C   0  0  0  0  0  0  0  0  0  0  0  0
   -4.9293    0.4630   -1.4234 C   0  0  0  0  0  0  0  0  0  0  0  0
   -5.1630    0.4944   -0.0536 C   0  0  0  0  0  0  0  0  0  0  0  0
   -6.3971    0.8849    0.4672 O   0  0  0  0  0  0  0  0  0  0  0  0
  1  2  1  0
  2  3  1  0
  3  4  2  0
  4  5  1  0
  5  6  1  0
  6  7  1  0
  7  8  1  0
  8  9  2  0
  8 10  1  0
 10 11  1  0
 11 12  1  0
 12 13  1  0
 13 14  1  0
 14 15  2  0
 15 16  1  0
 16 17  1  0
 16 18  1  0
  5 19  2  0
 19 20  1  0
 20 21  2  0
 21 22  1  0
 21  3  1  0
M  END
>  <zinc_id>  (14) 
ZINC000001530575

>  <smiles>  (14) 
COc1cc(CNC(=O)CCCC/C=C/C(C)C)ccc1O

$$$$

     RDKit          3D

 30 32  0  0  0  0  0  0  0  0999 V2000
    4.5304    3.5997   -0.8123 C   0  0  0  0  0  0  0  0  0  0  0  0
    4.4005    3.3917   -0.7760 C   0  0  0  0  0  0  0  0  0  0  0  0
    3.9655    2.2827    0.1893 C   0  0  0  0  0  0  0  0  0  0  0  0
    5.2911    1.5161    0.3213 C   0  0  0  0  0  0  0  0  0  0  0  0
    3.6871    2.8948    1.5060 C   0  0  0  0  0  0  0  0  0  0  0  0
    2.8909    1.4939   -0.4266 C   0  0  0  0  0  0  0  0  0  0  0  0
    3.1966    1.0347   -1.5750 O   0  0  0  0  0  0  0  0  0  0  0  0
    1.8073    0.8058    0.1344 O   0  0  0  0  0  0  0  0  0  0  0  0
    2.2238   -0.6453    0.4033 C   0  0  1  0  0  0  0  0  0  0  0  0
    1.3333   -0.7990    1.7726 C   0  0  0  0  0  0  0  0  0  0  0  0
    2.4966   -1.8761    2.2095 C   0  0  1  0  0  0  0  0  0  0  0  0
    1.6494   -2.4135    3.4980 C   0  0  0  0  0  0  0  0  0  0  0  0
    1.9205   -2.9806    1.2197 C   0  0  0  0  0  0  0  0  0  0  0  0
    1.5365   -2.7857    0.0492 C   0  0  0  0  0  0  0  0  0  0  0  0
    0.7975   -3.7974   -0.7287 C   0  0  0  0  0  0  0  0  0  0  0  0
   -0.4599   -3.3614   -0.9462 C   0  0  0  0  0  0  0  0  0  0  0  0
   -0.7212   -2.6931    0.4967 C   0  0  2  0  0  0  0  0  0  0  0  0
   -2.3231   -2.5840    0.2569 C   0  0  0  0  0  0  0  0  0  0  0  0
   -0.3164   -1.0890    0.0816 C   0  0  2  0  0  0  0  0  0  0  0  0
   -1.1604   -1.1123   -1.2861 C   0  0  0  0  0  0  0  0  0  0  0  0
   -1.9067    0.0239   -1.6217 C   0  0  0  0  0  0  0  0  0  0  0  0
   -3.4124    0.1044   -0.9717 C   0  0  2  0  0  0  0  0  0  0  0  0
   -4.0666    0.5218   -2.4005 C   0  0  0  0  0  0  0  0  0  0  0  0
   -5.5643    1.1365   -2.0969 C   0  0  1  0  0  0  0  0  0  0  0  0
   -5.9054    0.2336   -0.9171 O   0  0  0  0  0  0  0  0  0  0  0  0
   -5.1530    2.4193   -1.1363 C   0  0  0  0  0  0  0  0  0  0  0  0
   -4.3657    1.9412   -0.0448 C   0  0  0  0  0  0  0  0  0  0  0  0
   -4.4052    2.5965    1.0391 O   0  0  0  0  0  0  0  0  0  0  0  0
   -3.1199    1.5665   -0.5676 O   0  0  0  0  0  0  0  0  0  0  0  0
    1.1534   -1.4256   -0.6722 C   0  0  1  0  0  0  0  0  0  0  0  0
  1  2  1  0
  2  3  1  0
  3  4  1  0
  3  5  1  0
  3  6  1  0
  6  7  2  0
  6  8  1  0
  9  8  1  6
  9 10  1  0
 10 11  1  0
 11 12  1  1
 11 13  1  0
 13 14  2  0
 14 15  1  0
 15 16  2  0
 16 17  1  0
 17 18  1  6
 17 19  1  0
 19 20  1  6
 20 21  1  0
 22 21  1  6
 22 23  1  0
 23 24  1  0
 24 25  1  1
 24 26  1  0
 26 27  1  0
 27 28  2  0
 27 29  1  0
 19 30  1  0
 30  9  1  0
 30 14  1  1
 29 22  1  0
M  END
>  <zinc_id>  (15) 
ZINC000003780893

>  <smiles>  (15) 
CCC(C)(C)C(=O)O[C@H]1C[C@@H](C)C=C2C=C[C@H](C)[C@H](CC[C@@H]3C[C@@H](O)CC(=O)O3)[C@H]21

$$$$

     RDKit          3D

 31 32  0  0  0  0  0  0  0  0999 V2000
   -7.5050   -0.2987    1.5147 C   0  0  0  0  0  0  0  0  0  0  0  0
   -6.1730   -0.5151    1.2987 C   0  0  0  0  0  0  0  0  0  0  0  0
   -5.2189    0.4928    1.3814 C   0  0  0  0  0  0  0  0  0  0  0  0
   -5.7002    1.7794    1.9752 C   0  0  0  0  0  0  0  0  0  0  0  0
   -4.1259    0.5219    0.5232 C   0  0  0  0  0  0  0  0  0  0  0  0
   -3.9064   -0.5115   -0.3833 C   0  0  0  0  0  0  0  0  0  0  0  0
   -4.5674   -1.6953   -0.0718 C   0  0  0  0  0  0  0  0  0  0  0  0
   -4.1481   -2.9062   -0.8426 C   0  0  0  0  0  0  0  0  0  0  0  0
   -5.7253   -1.6854    0.6976 C   0  0  0  0  0  0  0  0  0  0  0  0
   -6.5840   -2.7852    0.6934 O   0  0  0  0  0  0  0  0  0  0  0  0
   -3.4303   -0.2386   -1.7788 C   0  0  0  0  0  0  0  0  0  0  0  0
   -3.1085    1.2440   -1.8214 C   0  0  0  0  0  0  0  0  0  0  0  0
   -2.2872    1.5233   -0.5653 C   0  0  1  0  0  0  0  0  0  0  0  0
   -1.4494    0.2980   -0.3291 C   0  0  0  0  0  0  0  0  0  0  0  0
   -1.5219    2.7714   -0.7939 C   0  0  0  0  0  0  0  0  0  0  0  0
   -0.5184    3.1312    0.2419 C   0  0  0  0  0  0  0  0  0  0  0  0
    0.4240    2.0327    0.6326 C   0  0  0  0  0  0  0  0  0  0  0  0
    1.9081    2.5373    0.0978 C   0  0  2  0  0  0  0  0  0  0  0  0
    1.3323    2.7880   -1.4343 C   0  0  0  0  0  0  0  0  0  0  0  0
    2.3616    0.9890   -0.2725 C   0  0  0  0  0  0  0  0  0  0  0  0
    3.0370    0.5876    1.0291 C   0  0  0  0  0  0  0  0  0  0  0  0
    3.4652   -0.8611    0.8601 C   0  0  0  0  0  0  0  0  0  0  0  0
    5.1039   -0.7652    0.6428 C   0  0  2  0  0  0  0  0  0  0  0  0
    4.9260    0.1712   -0.7108 C   0  0  0  0  0  0  0  0  0  0  0  0
    5.1224   -2.1526   -0.2603 C   0  0  0  0  0  0  0  0  0  0  0  0
    6.6011   -2.3791   -0.4061 C   0  0  0  0  0  0  0  0  0  0  0  0
    7.3401   -1.1136   -0.7585 C   0  0  0  0  0  0  0  0  0  0  0  0
    8.7958   -1.2504   -0.3770 C   0  0  0  0  0  0  0  0  0  0  0  0
    9.6375   -0.5867   -1.4521 C   0  0  0  0  0  0  0  0  0  0  0  0
    9.1511   -2.7263   -0.2789 C   0  0  0  0  0  0  0  0  0  0  0  0
   -3.2361    1.6033    0.4944 O   0  0  0  0  0  0  0  0  0  0  0  0
  1  2  1  0
  2  3  2  0
  3  4  1  0
  3  5  1  0
  5  6  2  0
  6  7  1  0
  7  8  1  0
  7  9  2  0
  9 10  1  0
  6 11  1  0
 11 12  1  0
 12 13  1  0
 13 14  1  1
 13 15  1  0
 15 16  1  0
 16 17  1  0
 18 17  1  1
 18 19  1  0
 18 20  1  0
 20 21  1  0
 21 22  1  0
 23 22  1  1
 23 24  1  0
 23 25  1  0
 25 26  1  0
 26 27  1  0
 27 28  1  0
 28 29  1  0
 28 30  1  0
 13 31  1  0
  9  2  1  0
 31  5  1  0
M  END
>  <zinc_id>  (16) 
ZINC000004095858

>  <smiles>  (16) 
Cc1c(C)c2c(c(C)c1O)CC[C@@](C)(CCC[C@H](C)CCC[C@H](C)CCCC(C)C)O2

$$$$

     RDKit          3D

 32 34  0  0  0  0  0  0  0  0999 V2000
   -7.9942    1.4439    1.6255 N   0  0  0  0  0  0  0  0  0  0  0  0
   -7.0012    1.1788    1.0521 C   0  0  0  0  0  0  0  0  0  0  0  0
   -6.0785    2.1282    0.7583 N   0  0  0  0  0  0  0  0  0  0  0  0
   -4.9075    1.8226    0.1479 C   0  0  0  0  0  0  0  0  0  0  0  0
   -3.8731    2.7601    0.1270 O   0  0  0  0  0  0  0  0  0  0  0  0
   -4.6796    0.5359   -0.3224 C   0  0  0  0  0  0  0  0  0  0  0  0
   -3.4280    0.0239   -0.2167 N   0  0  0  0  0  0  0  0  0  0  0  0
   -3.1828   -1.2976   -0.1398 C   0  0  0  0  0  0  0  0  0  0  0  0
   -2.1039   -1.8777    0.7165 C   0  0  0  0  0  0  0  0  0  0  0  0
   -1.4150   -0.7444    1.3218 N   0  0  0  0  0  0  0  0  0  0  0  0
   -0.6828    0.0984    0.4186 C   0  0  0  0  0  0  0  0  0  0  0  0
    0.0645    1.1829    0.8703 C   0  0  0  0  0  0  0  0  0  0  0  0
    1.4144    1.2874    0.5411 C   0  0  0  0  0  0  0  0  0  0  0  0
    1.9979    0.4540   -0.4087 C   0  0  0  0  0  0  0  0  0  0  0  0
    3.2938   -0.2001   -0.1575 C   0  0  0  0  0  0  0  0  0  0  0  0
    3.5253   -0.8312    0.9197 O   0  0  0  0  0  0  0  0  0  0  0  0
    4.0959   -0.4476   -1.2720 N   0  0  0  0  0  0  0  0  0  0  0  0
    5.4322   -1.2830   -1.0280 C   0  0  1  0  0  0  0  0  0  0  0  0
    5.8247   -0.4287    0.3519 C   0  0  0  0  0  0  0  0  0  0  0  0
    5.7637    1.0135   -0.1386 C   0  0  0  0  0  0  0  0  0  0  0  0
    7.0036    1.7681    0.1418 C   0  0  0  0  0  0  0  0  0  0  0  0
    7.8957    1.7190   -0.7598 O   0  0  0  0  0  0  0  0  0  0  0  0
    6.8454    3.0291    0.7288 O   0  0  0  0  0  0  0  0  0  0  0  0
    4.6523   -2.4415   -0.1696 C   0  0  0  0  0  0  0  0  0  0  0  0
    5.4737   -3.2770    0.3226 O   0  0  0  0  0  0  0  0  0  0  0  0
    3.6296   -3.0346   -0.9239 O   0  0  0  0  0  0  0  0  0  0  0  0
    1.0621   -0.1539   -1.2412 C   0  0  0  0  0  0  0  0  0  0  0  0
   -0.2470   -0.3706   -0.8184 C   0  0  0  0  0  0  0  0  0  0  0  0
   -4.2342   -2.1134   -0.5409 C   0  0  0  0  0  0  0  0  0  0  0  0
   -5.4958   -1.6226   -0.6170 N   0  0  0  0  0  0  0  0  0  0  0  0
   -5.7598   -0.3345   -0.2888 C   0  0  0  0  0  0  0  0  0  0  0  0
   -6.8914    0.0124    0.3715 N   0  0  0  0  0  0  0  0  0  0  0  0
  1  2  1  0
  2  3  2  0
  3  4  1  0
  4  5  1  0
  4  6  2  0
  6  7  1  0
  7  8  2  0
  8  9  1  0
  9 10  1  0
 10 11  1  0
 11 12  2  0
 12 13  1  0
 13 14  2  0
 14 15  1  0
 15 16  2  0
 15 17  1  0
 18 17  1  6
 18 19  1  0
 19 20  1  0
 20 21  1  0
 21 22  2  0
 21 23  1  0
 18 24  1  0
 24 25  2  0
 24 26  1  0
 14 27  1  0
 27 28  2  0
  8 29  1  0
 29 30  2  0
 30 31  1  0
 31 32  2  0
 32  2  1  0
 31  6  1  0
 28 11  1  0
M  END
>  <zinc_id>  (17) 
ZINC000008577218

>  <smiles>  (17) 
Nc1nc(O)c2nc(CNc3ccc(C(=O)N[C@@H](CCC(=O)O)C(=O)O)cc3)cnc2n1

$$$$

     RDKit          3D

 17 18  0  0  0  0  0  0  0  0999 V2000
    4.6120   -0.8405    1.2126 C   0  0  0  0  0  0  0  0  0  0  0  0
    3.8787   -0.0703   -0.0720 C   0  0  2  0  0  0  0  0  0  0  0  0
    4.5448    1.2643    0.2991 O   0  0  0  0  0  0  0  0  0  0  0  0
    2.4563    0.2607    0.8909 C   0  0  1  0  0  0  0  0  0  0  0  0
    2.2141    1.5822    0.2101 O   0  0  0  0  0  0  0  0  0  0  0  0
    1.5012   -0.7314   -0.1795 C   0  0  2  0  0  0  0  0  0  0  0  0
    0.9791    0.4680   -1.1841 C   0  0  0  0  0  0  0  0  0  0  0  0
   -0.0293    1.2273   -0.6193 N   0  0  0  0  0  0  0  0  0  0  0  0
   -1.2719    0.6122   -0.2601 C   0  0  0  0  0  0  0  0  0  0  0  0
   -2.4750    1.1579   -0.3865 N   0  0  0  0  0  0  0  0  0  0  0  0
   -3.5291    0.3907   -0.0498 C   0  0  0  0  0  0  0  0  0  0  0  0
   -4.8222    0.8380   -0.4102 N   0  0  0  0  0  0  0  0  0  0  0  0
   -3.3284   -0.9054    0.3081 N   0  0  0  0  0  0  0  0  0  0  0  0
   -2.1261   -1.3319    0.6982 C   0  0  0  0  0  0  0  0  0  0  0  0
   -1.8565   -2.5239    1.0458 O   0  0  0  0  0  0  0  0  0  0  0  0
   -1.0141   -0.6990    0.1448 C   0  0  0  0  0  0  0  0  0  0  0  0
    0.2664   -0.6989    0.8243 N   0  0  0  0  0  0  0  0  0  0  0  0
  2  1  1  1
  2  3  1  0
  2  4  1  0
  4  5  1  6
  4  6  1  0
  6  7  1  6
  7  8  1  0
  8  9  1  0
  9 10  1  0
 10 11  2  0
 11 12  1  0
 11 13  1  0
 13 14  1  0
 14 15  2  0
 14 16  1  0
 16 17  1  0
 17  6  1  0
 16  9  2  0
M  END
>  <zinc_id>  (18) 
ZINC000004228257

>  <smiles>  (18) 
C[C@H](O)[C@@H](O)[C@@H]1CNc2nc(N)[nH]c(=O)c2N1

$$$$

     RDKit          3D

 14 13  0  0  0  0  0  0  0  0999 V2000
   -2.7984    0.1876    0.1426 C   0  0  0  0  0  0  0  0  0  0  0  0
   -2.3357    0.2531    0.0160 C   0  0  0  0  0  0  0  0  0  0  0  0
   -1.8569    0.7542   -1.3170 C   0  0  0  0  0  0  0  0  0  0  0  0
   -1.8554    1.1336    1.1708 C   0  0  0  0  0  0  0  0  0  0  0  0
   -2.2831    2.4262    0.9785 O   0  0  0  0  0  0  0  0  0  0  0  0
   -1.5137   -1.1541    0.3035 C   0  0  1  0  0  0  0  0  0  0  0  0
   -1.7653   -1.6753   -1.1065 O   0  0  0  0  0  0  0  0  0  0  0  0
   -0.0845   -0.5083   -0.1231 C   0  0  0  0  0  0  0  0  0  0  0  0
    0.4176    0.1725    0.8265 O   0  0  0  0  0  0  0  0  0  0  0  0
    0.8399   -1.4675   -0.6637 N   0  0  0  0  0  0  0  0  0  0  0  0
    2.2158   -1.5625   -0.1848 C   0  0  0  0  0  0  0  0  0  0  0  0
    2.7540   -0.1840    0.1702 C   0  0  0  0  0  0  0  0  0  0  0  0
    4.0222    0.1228   -0.6121 C   0  0  0  0  0  0  0  0  0  0  0  0
    4.2436    1.5018   -0.6291 O   0  0  0  0  0  0  0  0  0  0  0  0
  1  2  1  0
  2  3  1  0
  2  4  1  0
  4  5  1  0
  6  2  1  6
  6  7  1  0
  6  8  1  0
  8  9  2  0
  8 10  1  0
 10 11  1  0
 11 12  1  0
 12 13  1  0
 13 14  1  0
M  END
>  <zinc_id>  (19) 
ZINC000001530303

>  <smiles>  (19) 
CC(C)(CO)[C@@H](O)C(=O)NCCCO

$$$$

     RDKit          3D

  6  5  0  0  0  0  0  0  0  0999 V2000
    1.5670   -0.8851    0.6826 C   0  0  0  0  0  0  0  0  0  0  0  0
    0.7219   -0.0235   -0.1954 C   0  0  0  0  0  0  0  0  0  0  0  0
    1.1460    1.0688   -0.6340 O   0  0  0  0  0  0  0  0  0  0  0  0
   -0.7146   -0.1197    0.0386 C   0  0  0  0  0  0  0  0  0  0  0  0
   -1.3797   -0.7941   -0.8006 O   0  0  0  0  0  0  0  0  0  0  0  0
   -1.3407    0.7536    0.9087 O   0  0  0  0  0  0  0  0  0  0  0  0
  1  2  1  0
  2  3  2  0
  2  4  1  0
  4  5  2  0
  4  6  1  0
M  END
>  <zinc_id>  (20) 
ZINC000001532517

>  <smiles>  (20) 
CC(=O)C(=O)O

$$$$

     RDKit          3D

  7  6  0  0  0  0  0  0  0  0999 V2000
    2.1612   -0.3629   -0.6529 O   0  0  0  0  0  0  0  0  0  0  0  0
    1.1582    0.1851   -0.1013 C   0  0  0  0  0  0  0  0  0  0  0  0
    1.4447    1.4290    0.4711 O   0  0  0  0  0  0  0  0  0  0  0  0
    0.3021   -0.7143    0.7365 C   0  0  0  0  0  0  0  0  0  0  0  0
   -0.8888   -1.1168   -0.0988 C   0  0  0  0  0  0  0  0  0  0  0  0
   -2.0314   -0.1975    0.3113 C   0  0  0  0  0  0  0  0  0  0  0  0
   -2.1460    0.7773   -0.6659 O   0  0  0  0  0  0  0  0  0  0  0  0
  1  2  2  0
  2  3  1  0
  2  4  1  0
  4  5  1  0
  5  6  1  0
  6  7  1  0
M  END
>  <zinc_id>  (21) 
ZINC000001532805

>  <smiles>  (21) 
O=C(O)CCCO

$$$$

     RDKit          3D

 21 24  0  0  0  0  0  0  0  0999 V2000
   -2.4146   -0.3870    1.6060 C   0  0  0  0  0  0  0  0  0  0  0  0
   -2.6023   -0.1722    0.1692 C   0  0  2  0  0  0  0  0  0  0  0  0
   -2.2033   -1.3184   -0.6585 C   0  0  0  0  0  0  0  0  0  0  0  0
   -0.8639   -1.6573    0.0272 C   0  0  0  0  0  0  0  0  0  0  0  0
    0.0847   -0.5387   -0.6711 C   0  0  1  0  0  0  0  0  0  0  0  0
   -0.3358    0.7875    0.2895 C   0  0  1  0  0  0  0  0  0  0  0  0
    0.4030    1.7991   -0.7255 C   0  0  0  0  0  0  0  0  0  0  0  0
    1.6677    1.1787   -1.2246 C   0  0  0  0  0  0  0  0  0  0  0  0
    2.2840    0.2229   -0.5531 C   0  0  0  0  0  0  0  0  0  0  0  0
    3.4411   -0.4951   -1.1332 C   0  0  0  0  0  0  0  0  0  0  0  0
    4.4113   -0.9632    0.1130 C   0  0  1  0  0  0  0  0  0  0  0  0
    4.1827    0.3524    0.8495 O   0  0  0  0  0  0  0  0  0  0  0  0
    3.2554   -1.7580    0.9786 C   0  0  0  0  0  0  0  0  0  0  0  0
    2.0584   -2.0416    0.0758 C   0  0  0  0  0  0  0  0  0  0  0  0
    1.3977   -0.7238    0.2474 C   0  0  2  0  0  0  0  0  0  0  0  0
    1.3250   -0.2347    1.5922 C   0  0  0  0  0  0  0  0  0  0  0  0
   -1.8325    1.1383   -0.3662 C   0  0  2  0  0  0  0  0  0  0  0  0
   -2.2858    1.9351    0.9828 C   0  0  0  0  0  0  0  0  0  0  0  0
   -3.7374    1.6118    0.9831 C   0  0  0  0  0  0  0  0  0  0  0  0
   -3.9062    0.4673    0.0099 C   0  0  0  0  0  0  0  0  0  0  0  0
   -4.3292    0.7972   -1.0983 O   0  0  0  0  0  0  0  0  0  0  0  0
  2  1  1  1
  2  3  1  0
  3  4  1  0
  5  4  1  1
  5  6  1  0
  6  7  1  6
  7  8  1  0
  8  9  2  0
  9 10  1  0
 10 11  1  0
 11 12  1  1
 11 13  1  0
 13 14  1  0
 14 15  1  0
 15 16  1  1
  6 17  1  0
 17 18  1  1
 18 19  1  0
 19 20  1  0
 20 21  2  0
 17  2  1  0
 20  2  1  0
 15  5  1  0
 15  9  1  0
M  END
>  <zinc_id>  (22) 
ZINC000003807917

>  <smiles>  (22) 
C[C@]12CC[C@H]3[C@@H](CC=C4C[C@@H](O)CC[C@@]43C)[C@@H]1CCC2=O

$$$$

     RDKit          3D

 25 26  0  0  0  0  0  0  0  0999 V2000
   -0.9626   -1.9846    1.7769 C   0  0  0  0  0  0  0  0  0  0  0  0
   -1.2443   -2.6417    0.2575 C   0  0  2  0  0  0  0  0  0  0  0  0
    0.2821   -2.4862   -0.2202 N   0  0  0  0  0  0  0  0  0  0  0  0
    0.5973   -1.0343    0.3831 C   0  0  1  0  0  0  0  0  0  0  0  0
    2.2362   -1.3708    0.4436 C   0  0  0  0  0  0  0  0  0  0  0  0
    2.7880   -0.4570    1.4947 C   0  0  0  0  0  0  0  0  0  0  0  0
    3.9673    0.3213    0.9931 C   0  0  0  0  0  0  0  0  0  0  0  0
    4.2148    0.5123   -0.3546 C   0  0  0  0  0  0  0  0  0  0  0  0
    4.5182    1.7719   -0.8641 C   0  0  0  0  0  0  0  0  0  0  0  0
    5.0589    2.6559    0.0637 C   0  0  0  0  0  0  0  0  0  0  0  0
    5.3137    2.2166    1.3581 C   0  0  0  0  0  0  0  0  0  0  0  0
    4.7241    1.0626    1.8627 C   0  0  0  0  0  0  0  0  0  0  0  0
    0.7531   -0.3368   -1.0939 C   0  0  0  0  0  0  0  0  0  0  0  0
    1.3494   -0.9652   -1.9469 O   0  0  0  0  0  0  0  0  0  0  0  0
    0.5245    0.9942   -0.9481 O   0  0  0  0  0  0  0  0  0  0  0  0
   -1.6605   -1.2141   -0.4340 C   0  0  0  0  0  0  0  0  0  0  0  0
   -1.9957   -1.5781   -1.6092 O   0  0  0  0  0  0  0  0  0  0  0  0
   -2.5023   -0.3990    0.3485 N   0  0  0  0  0  0  0  0  0  0  0  0
   -3.6059   -0.7693    1.1677 C   0  0  0  0  0  0  0  0  0  0  0  0
   -4.7065   -0.8295    0.1723 C   0  0  0  0  0  0  0  0  0  0  0  0
   -4.3755   -0.0636   -1.0366 C   0  0  0  0  0  0  0  0  0  0  0  0
   -3.0493    0.8256   -0.5273 C   0  0  1  0  0  0  0  0  0  0  0  0
   -3.8169    1.5095    0.7583 C   0  0  0  0  0  0  0  0  0  0  0  0
   -3.2272    2.6301    0.9028 O   0  0  0  0  0  0  0  0  0  0  0  0
   -5.1810    1.6303    0.6569 O   0  0  0  0  0  0  0  0  0  0  0  0
  2  1  1  1
  2  3  1  0
  4  3  1  6
  4  5  1  0
  5  6  1  0
  6  7  1  0
  7  8  2  0
  8  9  1  0
  9 10  2  0
 10 11  1  0
 11 12  2  0
  4 13  1  0
 13 14  2  0
 13 15  1  0
  2 16  1  0
 16 17  2  0
 16 18  1  0
 18 19  1  0
 19 20  1  0
 20 21  1  0
 21 22  1  0
 22 23  1  1
 23 24  2  0
 23 25  1  0
 12  7  1  0
 22 18  1  0
M  END
>  <zinc_id>  (23) 
ZINC000003812851

>  <smiles>  (23) 
C[C@H](N[C@@H](CCc1ccccc1)C(=O)O)C(=O)N1CCC[C@H]1C(=O)O

$$$$

     RDKit          3D

 28 31  0  0  0  0  0  0  0  0999 V2000
    3.2952    1.9264    2.1939 C   0  0  0  0  0  0  0  0  0  0  0  0
    2.6936    0.4183    2.2232 C   0  0  2  0  0  0  0  0  0  0  0  0
    4.1405   -0.2643    1.9839 C   0  0  0  0  0  0  0  0  0  0  0  0
    4.8303    0.4656    0.8884 C   0  0  0  0  0  0  0  0  0  0  0  0
    5.9055   -0.2954    0.2545 C   0  0  0  0  0  0  0  0  0  0  0  0
    5.9329   -0.4732   -1.0035 O   0  0  0  0  0  0  0  0  0  0  0  0
    7.1914   -0.1575    0.7944 O   0  0  0  0  0  0  0  0  0  0  0  0
    2.2513    0.5237    0.5888 C   0  0  1  0  0  0  0  0  0  0  0  0
    2.6503   -1.0005    0.1969 C   0  0  0  0  0  0  0  0  0  0  0  0
    1.5776   -1.3783   -0.7916 C   0  0  0  0  0  0  0  0  0  0  0  0
    0.5797   -0.1015   -0.7598 C   0  0  1  0  0  0  0  0  0  0  0  0
   -0.8100   -1.0341   -0.6181 C   0  0  2  0  0  0  0  0  0  0  0  0
   -1.1389   -1.0546   -2.1850 C   0  0  0  0  0  0  0  0  0  0  0  0
   -2.1572   -0.0609   -2.5594 C   0  0  0  0  0  0  0  0  0  0  0  0
   -3.5934   -0.4504   -1.8943 C   0  0  2  0  0  0  0  0  0  0  0  0
   -4.0711    1.1084   -1.7481 C   0  0  0  0  0  0  0  0  0  0  0  0
   -5.6810    0.8225   -1.5071 C   0  0  2  0  0  0  0  0  0  0  0  0
   -5.8248    1.9838   -0.5395 O   0  0  0  0  0  0  0  0  0  0  0  0
   -5.4480   -0.2360   -0.2663 C   0  0  0  0  0  0  0  0  0  0  0  0
   -4.1630    0.1712    0.4291 C   0  0  0  0  0  0  0  0  0  0  0  0
   -3.0993   -0.5172   -0.3402 C   0  0  1  0  0  0  0  0  0  0  0  0
   -2.9147   -1.9066    0.0417 C   0  0  0  0  0  0  0  0  0  0  0  0
   -1.7501    0.3479   -0.3694 C   0  0  1  0  0  0  0  0  0  0  0  0
   -1.5177    0.3672    1.2237 C   0  0  0  0  0  0  0  0  0  0  0  0
   -0.1073    1.2298    1.3669 C   0  0  2  0  0  0  0  0  0  0  0  0
   -0.1791    1.9604    0.0295 O   0  0  0  0  0  0  0  0  0  0  0  0
    0.7636   -0.0172    0.8297 C   0  0  2  0  0  0  0  0  0  0  0  0
    0.6437   -1.2055    1.5377 C   0  0  0  0  0  0  0  0  0  0  0  0
  2  1  1  6
  2  3  1  0
  3  4  1  0
  4  5  1  0
  5  6  2  0
  5  7  1  0
  2  8  1  0
  8  9  1  6
  9 10  1  0
 11 10  1  6
 11 12  1  0
 12 13  1  6
 13 14  1  0
 15 14  1  6
 15 16  1  0
 16 17  1  0
 17 18  1  1
 17 19  1  0
 19 20  1  0
 20 21  1  0
 21 22  1  1
 21 23  1  0
 23 24  1  1
 24 25  1  0
 25 26  1  6
 25 27  1  0
 27 28  1  1
 27  8  1  0
 27 11  1  0
 23 12  1  0
 21 15  1  0
M  END
>  <zinc_id>  (24) 
ZINC000003914810

>  <smiles>  (24) 
C[C@H](CCC(=O)O)[C@H]1CC[C@H]2[C@@H]3CC[C@@H]4C[C@H](O)CC[C@]4(C)[C@H]3C[C@H](O)[C@@]21C

$$$$

     RDKit          3D

  5  4  0  0  0  0  0  0  0  0999 V2000
   -0.9306   -1.0991   -0.2536 O   0  0  0  0  0  0  0  0  0  0  0  0
   -0.5400   -0.0513    0.3508 C   0  0  0  0  0  0  0  0  0  0  0  0
   -1.0346    1.1416   -0.1905 O   0  0  0  0  0  0  0  0  0  0  0  0
    0.9245   -0.0529    0.6645 C   0  0  0  0  0  0  0  0  0  0  0  0
    1.5807    0.0617   -0.5711 O   0  0  0  0  0  0  0  0  0  0  0  0
  1  2  2  0
  2  3  1  0
  2  4  1  0
  4  5  1  0
M  END
>  <zinc_id>  (25) 
ZINC000004658557

>  <smiles>  (25) 
O=C(O)CO

$$$$

     RDKit          3D

 34 36  0  0  0  0  0  0  0  0999 V2000
   -8.3222    0.5786   -2.1157 N   0  0  0  0  0  0  0  0  0  0  0  0
   -7.4476    0.0704   -1.2291 C   0  0  0  0  0  0  0  0  0  0  0  0
   -6.5340   -0.8775   -1.5574 N   0  0  0  0  0  0  0  0  0  0  0  0
   -5.3675   -0.8841   -0.9161 C   0  0  0  0  0  0  0  0  0  0  0  0
   -5.0989   -0.1442    0.2316 C   0  0  0  0  0  0  0  0  0  0  0  0
   -6.1696    0.6088    0.7006 C   0  0  0  0  0  0  0  0  0  0  0  0
   -5.9259    1.5033    1.5683 O   0  0  0  0  0  0  0  0  0  0  0  0
   -7.3284    0.6334   -0.0050 N   0  0  0  0  0  0  0  0  0  0  0  0
   -3.8261    0.3541    0.3804 N   0  0  0  0  0  0  0  0  0  0  0  0
   -3.4781    1.5929    1.0043 C   0  0  0  0  0  0  0  0  0  0  0  0
   -3.3564    2.5924    0.2355 O   0  0  0  0  0  0  0  0  0  0  0  0
   -2.5355   -0.5076    0.1830 C   0  0  2  0  0  0  0  0  0  0  0  0
   -2.3238    0.0468   -1.3513 C   0  0  0  0  0  0  0  0  0  0  0  0
   -0.9176   -0.1335   -1.5128 N   0  0  0  0  0  0  0  0  0  0  0  0
    0.0161    0.5425   -0.6573 C   0  0  0  0  0  0  0  0  0  0  0  0
    0.3133    0.0792    0.6223 C   0  0  0  0  0  0  0  0  0  0  0  0
    1.6322   -0.1736    1.0023 C   0  0  0  0  0  0  0  0  0  0  0  0
    2.6871    0.0782    0.1283 C   0  0  0  0  0  0  0  0  0  0  0  0
    3.7435   -0.9181   -0.1072 C   0  0  0  0  0  0  0  0  0  0  0  0
    3.4996   -2.1647   -0.1601 O   0  0  0  0  0  0  0  0  0  0  0  0
    4.9222   -0.6646   -0.7634 N   0  0  0  0  0  0  0  0  0  0  0  0
    6.2629   -1.3861   -0.3701 C   0  0  1  0  0  0  0  0  0  0  0  0
    6.6575   -0.2615    0.7696 C   0  0  0  0  0  0  0  0  0  0  0  0
    5.9593    0.9523    0.5882 C   0  0  0  0  0  0  0  0  0  0  0  0
    6.4906    2.2459    0.3714 C   0  0  0  0  0  0  0  0  0  0  0  0
    5.6461    3.1534    0.0847 O   0  0  0  0  0  0  0  0  0  0  0  0
    7.8137    2.5834    0.3114 O   0  0  0  0  0  0  0  0  0  0  0  0
    5.6082   -2.4349    0.6639 C   0  0  0  0  0  0  0  0  0  0  0  0
    5.5456   -2.2060    1.8532 O   0  0  0  0  0  0  0  0  0  0  0  0
    5.8406   -3.7699    0.3094 O   0  0  0  0  0  0  0  0  0  0  0  0
    2.3836    1.0608   -0.8106 C   0  0  0  0  0  0  0  0  0  0  0  0
    1.0668    1.2706   -1.2112 C   0  0  0  0  0  0  0  0  0  0  0  0
   -3.2757   -1.8807   -0.3248 C   0  0  0  0  0  0  0  0  0  0  0  0
   -4.1816   -1.5401   -1.3892 N   0  0  0  0  0  0  0  0  0  0  0  0
  1  2  1  0
  2  3  2  0
  3  4  1  0
  4  5  2  0
  5  6  1  0
  6  7  2  0
  6  8  1  0
  5  9  1  0
  9 10  1  0
 10 11  2  0
  9 12  1  0
 12 13  1  6
 13 14  1  0
 14 15  1  0
 15 16  2  0
 16 17  1  0
 17 18  2  0
 18 19  1  0
 19 20  2  0
 19 21  1  0
 22 21  1  6
 22 23  1  0
 23 24  1  0
 24 25  1  0
 25 26  2  0
 25 27  1  0
 22 28  1  0
 28 29  2  0
 28 30  1  0
 18 31  1  0
 31 32  2  0
 12 33  1  0
 33 34  1  0
  8  2  1  0
 32 15  1  0
 34  4  1  0
M  END
>  <zinc_id>  (26) 
ZINC000009212428

>  <smiles>  (26) 
Nc1nc2c(c(=O)[nH]1)N(C=O)[C@H](CNc1ccc(C(=O)N[C@@H](CCC(=O)O)C(=O)O)cc1)CN2

$$$$

     RDKit          3D

 17 18  0  0  0  0  0  0  0  0999 V2000
   -2.9764    1.5428    0.5550 C   0  0  0  0  0  0  0  0  0  0  0  0
   -3.4185    0.7964   -0.8738 C   0  0  2  0  0  0  0  0  0  0  0  0
   -4.0128   -0.4113   -0.1317 O   0  0  0  0  0  0  0  0  0  0  0  0
   -1.8410    0.0636   -1.0873 C   0  0  2  0  0  0  0  0  0  0  0  0
   -2.4390   -1.1898   -1.6824 O   0  0  0  0  0  0  0  0  0  0  0  0
   -1.7881   -0.5767    0.5297 C   0  0  1  0  0  0  0  0  0  0  0  0
   -0.9233   -1.9015    0.0474 C   0  0  0  0  0  0  0  0  0  0  0  0
    0.3440   -1.9030    0.6628 N   0  0  0  0  0  0  0  0  0  0  0  0
    1.2234   -0.9225    0.0725 C   0  0  0  0  0  0  0  0  0  0  0  0
    2.5328   -1.0851   -0.0753 N   0  0  0  0  0  0  0  0  0  0  0  0
    3.3369   -0.0006   -0.0106 C   0  0  0  0  0  0  0  0  0  0  0  0
    4.7257   -0.2453    0.0743 N   0  0  0  0  0  0  0  0  0  0  0  0
    2.7740    1.2080    0.0312 N   0  0  0  0  0  0  0  0  0  0  0  0
    1.4542    1.4021    0.2710 C   0  0  0  0  0  0  0  0  0  0  0  0
    0.9714    2.5732    0.2147 O   0  0  0  0  0  0  0  0  0  0  0  0
    0.5856    0.3195    0.1042 C   0  0  0  0  0  0  0  0  0  0  0  0
   -0.5489    0.3301    0.9299 N   0  0  0  0  0  0  0  0  0  0  0  0
  2  1  1  1
  2  3  1  0
  2  4  1  0
  4  5  1  6
  4  6  1  0
  6  7  1  6
  7  8  1  0
  8  9  1  0
  9 10  1  0
 10 11  2  0
 11 12  1  0
 11 13  1  0
 13 14  1  0
 14 15  2  0
 14 16  1  0
 16 17  1  0
 17  6  1  0
 16  9  2  0
M  END
>  <zinc_id>  (27) 
ZINC000013585233

>  <smiles>  (27) 
C[C@H](O)[C@H](O)[C@H]1CNc2nc(N)[nH]c(=O)c2N1

$$$$

     RDKit          3D

 14 15  0  0  0  0  0  0  0  0999 V2000
    2.8404   -1.4660    0.8035 C   0  0  0  0  0  0  0  0  0  0  0  0
    2.1959   -0.4262    0.0043 N   0  0  0  0  0  0  0  0  0  0  0  0
    2.6276    0.8445   -0.1820 C   0  0  0  0  0  0  0  0  0  0  0  0
    1.5963    1.6891   -0.2531 N   0  0  0  0  0  0  0  0  0  0  0  0
    0.4613    0.9804   -0.1962 C   0  0  0  0  0  0  0  0  0  0  0  0
    0.8577   -0.3428   -0.1854 C   0  0  0  0  0  0  0  0  0  0  0  0
   -0.1514   -1.2800   -0.2346 C   0  0  0  0  0  0  0  0  0  0  0  0
    0.1198   -2.4904    0.0283 O   0  0  0  0  0  0  0  0  0  0  0  0
   -1.4419   -0.8625   -0.2347 N   0  0  0  0  0  0  0  0  0  0  0  0
   -2.5002   -1.8243   -0.4613 C   0  0  0  0  0  0  0  0  0  0  0  0
   -1.7669    0.4516   -0.1675 C   0  0  0  0  0  0  0  0  0  0  0  0
   -2.9575    0.8224    0.0535 O   0  0  0  0  0  0  0  0  0  0  0  0
   -0.8049    1.3715    0.0897 N   0  0  0  0  0  0  0  0  0  0  0  0
   -1.0761    2.5327    0.9352 C   0  0  0  0  0  0  0  0  0  0  0  0
  1  2  1  0
  2  3  1  0
  3  4  2  0
  4  5  1  0
  5  6  2  0
  6  7  1  0
  7  8  2  0
  7  9  1  0
  9 10  1  0
  9 11  1  0
 11 12  2  0
 11 13  1  0
 13 14  1  0
  6  2  1  0
 13  5  1  0
M  END
>  <zinc_id>  (28) 
ZINC000000001084

>  <smiles>  (28) 
Cn1c(=O)c2c(ncn2C)n(C)c1=O

$$$$

     RDKit          3D

 18 19  0  0  0  0  0  0  0  0999 V2000
    2.0710   -2.2610   -0.5903 C   0  0  0  0  0  0  0  0  0  0  0  0
    1.8386   -0.8235   -0.9405 C   0  0  0  0  0  0  0  0  0  0  0  0
    2.8283    0.0581   -1.3562 C   0  0  0  0  0  0  0  0  0  0  0  0
    4.3162   -0.1090   -1.2818 C   0  0  0  0  0  0  0  0  0  0  0  0
    4.7135    0.3860    0.1058 C   0  0  0  0  0  0  0  0  0  0  0  0
    4.8573   -0.6934    0.9892 O   0  0  0  0  0  0  0  0  0  0  0  0
    1.8769    1.2666   -2.1229 S   0  0  0  0  0  0  0  0  0  0  0  0
    0.3380    0.6480   -1.6621 C   0  0  0  0  0  0  0  0  0  0  0  0
    0.7047   -0.1570   -0.6312 N   0  0  0  0  0  0  0  0  0  0  0  0
   -0.0517   -0.4802    0.5761 C   0  0  0  0  0  0  0  0  0  0  0  0
   -1.4276   -0.0076    0.5469 C   0  0  0  0  0  0  0  0  0  0  0  0
   -1.9060    1.0600   -0.2005 C   0  0  0  0  0  0  0  0  0  0  0  0
   -3.2485    1.2585   -0.1889 N   0  0  0  0  0  0  0  0  0  0  0  0
   -4.0636    0.4748    0.5467 C   0  0  0  0  0  0  0  0  0  0  0  0
   -5.4648    0.1548    0.1416 C   0  0  0  0  0  0  0  0  0  0  0  0
   -3.5429   -0.1727    1.6124 N   0  0  0  0  0  0  0  0  0  0  0  0
   -2.1996   -0.3354    1.6556 C   0  0  0  0  0  0  0  0  0  0  0  0
   -1.6398   -0.9848    2.8001 N   0  0  0  0  0  0  0  0  0  0  0  0
  1  2  1  0
  2  3  2  0
  3  4  1  0
  4  5  1  0
  5  6  1  0
  3  7  1  0
  7  8  1  0
  8  9  2  0
  9 10  1  0
 10 11  1  0
 11 12  2  0
 12 13  1  0
 13 14  2  0
 14 15  1  0
 14 16  1  0
 16 17  2  0
 17 18  1  0
  9  2  1  0
 17 11  1  0
M  CHG  1   9   1
M  END
>  <zinc_id>  (29) 
ZINC000000049153

>  <smiles>  (29) 
Cc1ncc(C[n+]2csc(CCO)c2C)c(N)n1

$$$$

     RDKit          3D

 12 12  0  0  0  0  0  0  0  0999 V2000
   -2.5147   -1.2923    0.2869 O   0  0  0  0  0  0  0  0  0  0  0  0
   -1.4638   -0.7120    0.0405 C   0  0  0  0  0  0  0  0  0  0  0  0
   -0.6315   -1.0498   -0.9973 O   0  0  0  0  0  0  0  0  0  0  0  0
    0.6330   -0.1943   -0.7877 C   0  0  2  0  0  0  0  0  0  0  0  0
    0.6895   -0.5556    0.9120 C   0  0  1  0  0  0  0  0  0  0  0  0
    1.3657   -1.8906    0.6551 O   0  0  0  0  0  0  0  0  0  0  0  0
    2.1204    0.2344    1.1151 C   0  0  0  0  0  0  0  0  0  0  0  0
    2.9765   -0.2422    0.1531 O   0  0  0  0  0  0  0  0  0  0  0  0
   -0.2555    1.1335   -0.5352 C   0  0  0  0  0  0  0  0  0  0  0  0
    0.5511    2.1993   -0.1131 O   0  0  0  0  0  0  0  0  0  0  0  0
   -1.2407    0.7233    0.2426 C   0  0  0  0  0  0  0  0  0  0  0  0
   -2.2300    1.6465    0.6105 O   0  0  0  0  0  0  0  0  0  0  0  0
  1  2  2  0
  2  3  1  0
  4  3  1  6
  4  5  1  0
  5  6  1  6
  5  7  1  0
  7  8  1  0
  4  9  1  0
  9 10  1  0
  9 11  2  0
 11 12  1  0
 11  2  1  0
M  END
>  <zinc_id>  (30) 
ZINC000100006770

>  <smiles>  (30) 
O=C1O[C@H]([C@@H](O)CO)C(O)=C1O

$$$$

     RDKit          3D

 27 29  0  0  0  0  0  0  0  0999 V2000
   -4.1909   -3.8762    0.0902 C   0  0  0  0  0  0  0  0  0  0  0  0
   -3.1366   -2.8546   -0.0764 C   0  0  0  0  0  0  0  0  0  0  0  0
   -3.4006   -1.5953   -0.5730 C   0  0  0  0  0  0  0  0  0  0  0  0
   -2.4250   -0.6074   -0.5125 C   0  0  0  0  0  0  0  0  0  0  0  0
   -2.8523    0.6534   -0.6567 N   0  0  0  0  0  0  0  0  0  0  0  0
   -1.9130    1.6130   -0.7279 C   0  0  0  0  0  0  0  0  0  0  0  0
   -2.3638    2.9185   -0.5699 C   0  0  0  0  0  0  0  0  0  0  0  0
   -3.4746    3.1899   -1.0843 O   0  0  0  0  0  0  0  0  0  0  0  0
   -1.4520    3.8697   -0.2564 N   0  0  0  0  0  0  0  0  0  0  0  0
   -0.1455    3.5533   -0.0890 C   0  0  0  0  0  0  0  0  0  0  0  0
    0.7079    4.4731    0.0941 O   0  0  0  0  0  0  0  0  0  0  0  0
    0.3270    2.3066   -0.3297 N   0  0  0  0  0  0  0  0  0  0  0  0
   -0.5008    1.2547   -0.5485 C   0  0  0  0  0  0  0  0  0  0  0  0
   -0.1013   -0.0227   -0.3295 N   0  0  0  0  0  0  0  0  0  0  0  0
    0.9906   -0.2515    0.6162 C   0  0  0  0  0  0  0  0  0  0  0  0
    2.3282   -0.4211   -0.3660 C   0  0  2  0  0  0  0  0  0  0  0  0
    2.1868   -1.9527   -0.3592 O   0  0  0  0  0  0  0  0  0  0  0  0
    3.3779   -0.4722    1.0268 C   0  0  2  0  0  0  0  0  0  0  0  0
    2.9738    0.9014    1.5050 O   0  0  0  0  0  0  0  0  0  0  0  0
    4.7591    0.1474    0.1474 C   0  0  2  0  0  0  0  0  0  0  0  0
    3.9473    1.1946   -0.6326 O   0  0  0  0  0  0  0  0  0  0  0  0
    4.5931   -0.9904   -1.0671 C   0  0  0  0  0  0  0  0  0  0  0  0
    5.0753   -2.1142   -0.3744 O   0  0  0  0  0  0  0  0  0  0  0  0
   -1.0922   -0.9481   -0.3377 C   0  0  0  0  0  0  0  0  0  0  0  0
   -0.8633   -2.2595    0.0593 C   0  0  0  0  0  0  0  0  0  0  0  0
   -1.8609   -3.1489    0.3469 C   0  0  0  0  0  0  0  0  0  0  0  0
   -1.4942   -4.5610    0.6521 C   0  0  0  0  0  0  0  0  0  0  0  0
  1  2  1  0
  2  3  2  0
  3  4  1  0
  4  5  1  0
  5  6  2  0
  6  7  1  0
  7  8  2  0
  7  9  1  0
  9 10  1  0
 10 11  2  0
 10 12  1  0
 12 13  2  0
 13 14  1  0
 14 15  1  0
 16 15  1  1
 16 17  1  0
 16 18  1  0
 18 19  1  1
 18 20  1  0
 20 21  1  6
 20 22  1  0
 22 23  1  0
 14 24  1  0
 24 25  1  0
 25 26  2  0
 26 27  1  0
 26  2  1  0
 24  4  2  0
 13  6  1  0
M  END
>  <zinc_id>  (31) 
ZINC000002036848

>  <smiles>  (31) 
Cc1cc2nc3c(=O)[nH]c(=O)nc-3n(C[C@H](O)[C@H](O)[C@H](O)CO)c2cc1C

$$$$

     RDKit          3D

 24 26  0  0  0  0  0  0  0  0999 V2000
   -3.6601   -0.4520    0.7145 C   0  0  0  0  0  0  0  0  0  0  0  0
   -3.5205   -0.4388    0.9772 C   0  0  0  0  0  0  0  0  0  0  0  0
   -4.2750   -1.0054   -0.1729 C   0  0  0  0  0  0  0  0  0  0  0  0
   -2.1924   -1.4691    1.7045 S   0  0  0  0  0  0  0  0  0  0  0  0
   -1.7660   -1.9104   -0.0869 C   0  0  2  0  0  0  0  0  0  0  0  0
   -0.1062   -1.6381   -0.2346 C   0  0  2  0  0  0  0  0  0  0  0  0
    0.0612   -0.4012    0.7403 N   0  0  0  0  0  0  0  0  0  0  0  0
    0.8243    0.6806    0.1750 C   0  0  0  0  0  0  0  0  0  0  0  0
    1.0481    0.6652   -1.0219 O   0  0  0  0  0  0  0  0  0  0  0  0
    1.8998    1.3512    1.1701 C   0  0  2  0  0  0  0  0  0  0  0  0
    2.1281    2.5947    0.2160 N   0  0  0  0  0  0  0  0  0  0  0  0
    3.1101    0.5031    0.5175 C   0  0  0  0  0  0  0  0  0  0  0  0
    4.2938    1.1007    0.3375 C   0  0  0  0  0  0  0  0  0  0  0  0
    5.3018    0.2712   -0.1470 C   0  0  0  0  0  0  0  0  0  0  0  0
    5.2343   -1.0868    0.1458 C   0  0  0  0  0  0  0  0  0  0  0  0
    4.0969   -1.6216    0.7351 C   0  0  0  0  0  0  0  0  0  0  0  0
    3.0154   -0.7949    0.9857 C   0  0  0  0  0  0  0  0  0  0  0  0
   -0.6631   -0.7327   -1.4546 C   0  0  0  0  0  0  0  0  0  0  0  0
   -0.7106   -1.1335   -2.6572 O   0  0  0  0  0  0  0  0  0  0  0  0
   -1.8879   -0.5281   -0.7164 N   0  0  0  0  0  0  0  0  0  0  0  0
   -2.2828    0.4807    0.4157 C   0  0  1  0  0  0  0  0  0  0  0  0
   -3.2290    1.3516   -0.5631 C   0  0  0  0  0  0  0  0  0  0  0  0
   -4.3004    1.7794   -0.0127 O   0  0  0  0  0  0  0  0  0  0  0  0
   -2.4200    2.4341   -0.9489 O   0  0  0  0  0  0  0  0  0  0  0  0
  1  2  1  0
  2  3  1  0
  2  4  1  0
  5  4  1  1
  5  6  1  0
  6  7  1  1
  7  8  1  0
  8  9  2  0
 10  8  1  6
 10 11  1  0
 10 12  1  0
 12 13  2  0
 13 14  1  0
 14 15  2  0
 15 16  1  0
 16 17  2  0
  6 18  1  0
 18 19  2  0
 18 20  1  0
 20 21  1  0
 21 22  1  6
 22 23  2  0
 22 24  1  0
 21  2  1  0
 20  5  1  0
 17 12  1  0
M  END
>  <zinc_id>  (32) 
ZINC000003830218

>  <smiles>  (32) 
CC1(C)S[C@@H]2[C@H](NC(=O)[C@H](N)c3ccccc3)C(=O)N2[C@H]1C(=O)O

$$$$

     RDKit          3D

 23 24  0  0  0  0  0  0  0  0999 V2000
    4.3863   -1.2861   -0.4419 O   0  0  0  0  0  0  0  0  0  0  0  0
    4.5455   -0.6746   -0.7301 C   0  0  0  0  0  0  0  0  0  0  0  0
    3.1186    0.0974   -0.9720 C   0  0  1  0  0  0  0  0  0  0  0  0
    2.3501   -0.8661   -0.1031 O   0  0  0  0  0  0  0  0  0  0  0  0
    1.2476    0.0112   -0.2280 C   0  0  1  0  0  0  0  0  0  0  0  0
    1.2373    0.6585   -1.4689 C   0  0  0  0  0  0  0  0  0  0  0  0
    0.6169    1.4758   -2.1787 O   0  0  0  0  0  0  0  0  0  0  0  0
    0.1111   -0.5417    0.0066 O   0  0  0  0  0  0  0  0  0  0  0  0
   -0.8147    0.2107    0.9491 C   0  0  1  0  0  0  0  0  0  0  0  0
   -1.3830    0.9901   -0.2103 O   0  0  0  0  0  0  0  0  0  0  0  0
   -2.7114    1.5507    0.1822 C   0  0  2  0  0  0  0  0  0  0  0  0
   -2.6611    1.2184    1.7936 C   0  0  0  0  0  0  0  0  0  0  0  0
   -3.8888    1.6815    2.2436 O   0  0  0  0  0  0  0  0  0  0  0  0
   -3.6695    0.1692   -0.1997 C   0  0  1  0  0  0  0  0  0  0  0  0
   -3.8698    0.6779   -1.5927 O   0  0  0  0  0  0  0  0  0  0  0  0
   -2.3850   -0.8358   -0.7013 C   0  0  2  0  0  0  0  0  0  0  0  0
   -3.2858   -2.0314   -0.6698 O   0  0  0  0  0  0  0  0  0  0  0  0
   -2.0273   -1.0446    0.9517 C   0  0  1  0  0  0  0  0  0  0  0  0
   -1.1052   -2.1981    0.7256 O   0  0  0  0  0  0  0  0  0  0  0  0
    1.7117    1.1150    0.8639 C   0  0  1  0  0  0  0  0  0  0  0  0
    2.0494    0.1003    1.9378 O   0  0  0  0  0  0  0  0  0  0  0  0
    3.3463    1.1431    0.3514 C   0  0  2  0  0  0  0  0  0  0  0  0
    3.0809    2.3412   -0.5088 O   0  0  0  0  0  0  0  0  0  0  0  0
  1  2  1  0
  3  2  1  1
  3  4  1  0
  4  5  1  0
  5  6  1  6
  6  7  1  0
  5  8  1  0
  9  8  1  6
  9 10  1  0
 10 11  1  0
 11 12  1  1
 12 13  1  0
 11 14  1  0
 14 15  1  6
 14 16  1  0
 16 17  1  1
 16 18  1  0
 18 19  1  6
  5 20  1  0
 20 21  1  1
 20 22  1  0
 22 23  1  6
 22  3  1  0
 18  9  1  0
M  END
>  <zinc_id>  (33) 
ZINC000004217475

>  <smiles>  (33) 
OC[C@H]1O[C@H](O[C@]2(CO)O[C@H](CO)[C@@H](O)[C@@H]2O)[C@H](O)[C@@H](O)[C@@H]1O

$$$$

     RDKit          3D

 13 14  0  0  0  0  0  0  0  0999 V2000
    0.0557    2.7419   -0.5549 C   0  0  0  0  0  0  0  0  0  0  0  0
    0.1589    1.3144   -0.3013 N   0  0  0  0  0  0  0  0  0  0  0  0
   -0.9788    0.5832   -0.2534 C   0  0  0  0  0  0  0  0  0  0  0  0
   -2.2779    0.8449   -0.0715 N   0  0  0  0  0  0  0  0  0  0  0  0
   -2.8557   -0.2117    0.5513 C   0  0  0  0  0  0  0  0  0  0  0  0
   -2.0743   -1.2617    0.1972 N   0  0  0  0  0  0  0  0  0  0  0  0
   -0.8640   -0.7944   -0.1834 C   0  0  0  0  0  0  0  0  0  0  0  0
    0.4249   -1.2951   -0.2019 C   0  0  0  0  0  0  0  0  0  0  0  0
    0.5397   -2.5484   -0.3530 O   0  0  0  0  0  0  0  0  0  0  0  0
    1.4932   -0.5508    0.1694 N   0  0  0  0  0  0  0  0  0  0  0  0
    2.7511   -1.1610    0.5165 C   0  0  0  0  0  0  0  0  0  0  0  0
    1.3589    0.7920    0.0486 C   0  0  0  0  0  0  0  0  0  0  0  0
    2.2683    1.5466    0.4365 O   0  0  0  0  0  0  0  0  0  0  0  0
  1  2  1  0
  2  3  1  0
  3  4  1  0
  4  5  2  0
  5  6  1  0
  6  7  1  0
  7  8  1  0
  8  9  2  0
  8 10  1  0
 10 11  1  0
 10 12  1  0
 12 13  2  0
 12  2  1  0
  7  3  2  0
M  END
>  <zinc_id>  (34) 
ZINC000018043251

>  <smiles>  (34) 
Cn1c(=O)c2[nH]cnc2n(C)c1=O

$$$$

     RDKit          3D

  7  7  0  0  0  0  0  0  0  0999 V2000
   -1.6176   -1.1242    0.0474 N   0  0  0  0  0  0  0  0  0  0  0  0
   -0.2594   -0.8092   -0.6916 C   0  0  2  0  0  0  0  0  0  0  0  0
    0.6244   -1.0368    0.6817 C   0  0  0  0  0  0  0  0  0  0  0  0
    1.6521   -0.1587    0.2077 O   0  0  0  0  0  0  0  0  0  0  0  0
    1.0159    0.9370   -0.3238 N   0  0  0  0  0  0  0  0  0  0  0  0
   -0.2789    0.7717   -0.3752 C   0  0  0  0  0  0  0  0  0  0  0  0
   -1.1365    1.4202    0.4537 O   0  0  0  0  0  0  0  0  0  0  0  0
  2  1  1  1
  2  3  1  0
  3  4  1  0
  4  5  1  0
  5  6  2  0
  6  7  1  0
  6  2  1  0
M  END
>  <zinc_id>  (35) 
ZINC000034676245

>  <smiles>  (35) 
N[C@@H]1CON=C1O

$$$$

     RDKit          3D

  9  9  0  0  0  0  0  0  0  0999 V2000
    2.4412    0.4678   -1.0254 N   0  0  0  0  0  0  0  0  0  0  0  0
    1.7235   -0.1541   -0.1368 C   0  0  0  0  0  0  0  0  0  0  0  0
    2.3592   -0.3322    1.0958 O   0  0  0  0  0  0  0  0  0  0  0  0
    0.2622   -0.0664   -0.1115 C   0  0  0  0  0  0  0  0  0  0  0  0
   -0.3694    1.0772    0.3588 C   0  0  0  0  0  0  0  0  0  0  0  0
   -1.7183    1.1718    0.2703 N   0  0  0  0  0  0  0  0  0  0  0  0
   -2.3643    0.1319   -0.3157 C   0  0  0  0  0  0  0  0  0  0  0  0
   -1.8368   -1.1093    0.0312 C   0  0  0  0  0  0  0  0  0  0  0  0
   -0.4973   -1.1868   -0.1668 N   0  0  0  0  0  0  0  0  0  0  0  0
  1  2  2  0
  2  3  1  0
  2  4  1  0
  4  5  2  0
  5  6  1  0
  6  7  2  0
  7  8  1  0
  8  9  2  0
  9  4  1  0
M  END
>  <zinc_id>  (36) 
ZINC000000002005

>  <smiles>  (36) 
N=C(O)c1cnccn1

$$$$

     RDKit          3D

 24 26  0  0  0  0  0  0  0  0999 V2000
    5.3697    0.4503    1.0322 C   0  0  0  0  0  0  0  0  0  0  0  0
    4.2113    0.3601    0.8191 C   0  0  0  0  0  0  0  0  0  0  0  0
    3.8124    0.0630   -0.4159 C   0  0  0  0  0  0  0  0  0  0  0  0
    4.7683   -0.1779   -1.5039 C   0  0  0  0  0  0  0  0  0  0  0  0
    5.8168   -0.8656   -1.3085 O   0  0  0  0  0  0  0  0  0  0  0  0
    4.9027    0.7620   -2.5340 O   0  0  0  0  0  0  0  0  0  0  0  0
    2.4462   -0.0849   -0.7988 N   0  0  0  0  0  0  0  0  0  0  0  0
    1.4162   -1.0806   -0.9992 C   0  0  0  0  0  0  0  0  0  0  0  0
    1.3574   -1.9333   -1.9180 O   0  0  0  0  0  0  0  0  0  0  0  0
    0.3590    0.1488   -1.0156 C   0  0  1  0  0  0  0  0  0  0  0  0
   -0.5134   -0.3980    0.2012 N   0  0  0  0  0  0  0  0  0  0  0  0
   -1.7426    0.2918    0.1261 C   0  0  0  0  0  0  0  0  0  0  0  0
   -1.6696    1.5271    0.4181 O   0  0  0  0  0  0  0  0  0  0  0  0
   -2.9531   -0.3161    1.0393 C   0  0  2  0  0  0  0  0  0  0  0  0
   -2.6761   -1.8202    0.5734 N   0  0  0  0  0  0  0  0  0  0  0  0
   -4.0319   -0.0932   -0.1721 C   0  0  0  0  0  0  0  0  0  0  0  0
   -5.1485   -0.8849   -0.0474 C   0  0  0  0  0  0  0  0  0  0  0  0
   -6.3388   -0.4147   -0.5859 C   0  0  0  0  0  0  0  0  0  0  0  0
   -6.4624    0.9240   -0.9394 C   0  0  0  0  0  0  0  0  0  0  0  0
   -5.3142    1.6832   -1.1364 C   0  0  0  0  0  0  0  0  0  0  0  0
   -4.1224    1.2352   -0.5748 C   0  0  0  0  0  0  0  0  0  0  0  0
    1.5443    0.9026   -0.0709 C   0  0  1  0  0  0  0  0  0  0  0  0
    1.5994   -0.1478    1.5212 S   0  0  0  0  0  0  0  0  0  0  0  0
    3.3693   -0.1309    1.9487 C   0  0  0  0  0  0  0  0  0  0  0  0
  1  2  1  0
  2  3  2  0
  3  4  1  0
  4  5  2  0
  4  6  1  0
  3  7  1  0
  7  8  1  0
  8  9  2  0
  8 10  1  0
 10 11  1  1
 11 12  1  0
 12 13  2  0
 14 12  1  6
 14 15  1  0
 14 16  1  0
 16 17  2  0
 17 18  1  0
 18 19  2  0
 19 20  1  0
 20 21  2  0
 10 22  1  0
 22 23  1  1
 23 24  1  0
 24  2  1  0
 22  7  1  0
 21 16  1  0
M  END
>  <zinc_id>  (37) 
ZINC000003830500

>  <smiles>  (37) 
CC1=C(C(=O)O)N2C(=O)[C@@H](NC(=O)[C@H](N)c3ccccc3)[C@H]2SC1

$$$$

     RDKit          3D

 23 25  0  0  0  0  0  0  0  0999 V2000
   -4.2338   -1.0362    0.6512 C   0  0  0  0  0  0  0  0  0  0  0  0
   -3.7553   -0.5774    0.7783 C   0  0  0  0  0  0  0  0  0  0  0  0
   -3.9666    0.1032    2.1289 C   0  0  0  0  0  0  0  0  0  0  0  0
   -2.0055   -0.8932    0.6074 S   0  0  0  0  0  0  0  0  0  0  0  0
   -1.6991    0.3635   -0.8086 C   0  0  2  0  0  0  0  0  0  0  0  0
   -0.4635    1.3290   -0.1536 C   0  0  2  0  0  0  0  0  0  0  0  0
    0.3377    0.0966    0.4956 N   0  0  0  0  0  0  0  0  0  0  0  0
    1.5368   -0.0988   -0.2747 C   0  0  0  0  0  0  0  0  0  0  0  0
    1.5672    0.1957   -1.5115 O   0  0  0  0  0  0  0  0  0  0  0  0
    2.5215   -1.1670    0.0874 C   0  0  0  0  0  0  0  0  0  0  0  0
    3.8131   -0.6168    0.5552 C   0  0  0  0  0  0  0  0  0  0  0  0
    4.5574   -1.3769    1.4496 C   0  0  0  0  0  0  0  0  0  0  0  0
    5.9357   -1.5080    1.3492 C   0  0  0  0  0  0  0  0  0  0  0  0
    6.6175   -0.5501    0.6229 C   0  0  0  0  0  0  0  0  0  0  0  0
    5.8880    0.4249   -0.0449 C   0  0  0  0  0  0  0  0  0  0  0  0
    4.5026    0.3674   -0.1175 C   0  0  0  0  0  0  0  0  0  0  0  0
   -1.5253    1.4798    1.0692 C   0  0  0  0  0  0  0  0  0  0  0  0
   -1.3364    1.9218    2.1926 O   0  0  0  0  0  0  0  0  0  0  0  0
   -2.5186    1.3351    0.0258 N   0  0  0  0  0  0  0  0  0  0  0  0
   -3.9981    0.7678   -0.1924 C   0  0  1  0  0  0  0  0  0  0  0  0
   -3.6872   -0.0842   -1.5694 C   0  0  0  0  0  0  0  0  0  0  0  0
   -3.5800    0.7053   -2.5564 O   0  0  0  0  0  0  0  0  0  0  0  0
   -4.5080   -1.1813   -1.7201 O   0  0  0  0  0  0  0  0  0  0  0  0
  1  2  1  0
  2  3  1  0
  2  4  1  0
  5  4  1  1
  5  6  1  0
  6  7  1  1
  7  8  1  0
  8  9  2  0
  8 10  1  0
 10 11  1  0
 11 12  2  0
 12 13  1  0
 13 14  2  0
 14 15  1  0
 15 16  2  0
  6 17  1  0
 17 18  2  0
 17 19  1  0
 19 20  1  0
 20 21  1  6
 21 22  2  0
 21 23  1  0
 20  2  1  0
 19  5  1  0
 16 11  1  0
M  END
>  <zinc_id>  (38) 
ZINC000003871701

>  <smiles>  (38) 
CC1(C)S[C@@H]2[C@H](NC(=O)Cc3ccccc3)C(=O)N2[C@H]1C(=O)O

$$$$

     RDKit          3D

 22 22  0  0  0  0  0  0  0  0999 V2000
   -1.4612   -0.7777    1.6064 C   0  0  0  0  0  0  0  0  0  0  0  0
   -0.4773   -0.4992    0.5381 C   0  0  0  0  0  0  0  0  0  0  0  0
    0.6516    0.4240    0.7102 C   0  0  0  0  0  0  0  0  0  0  0  0
    1.8816    0.0433    0.9466 C   0  0  0  0  0  0  0  0  0  0  0  0
    3.0492    0.4737    0.1864 C   0  0  0  0  0  0  0  0  0  0  0  0
    2.9639    1.2853   -0.8686 C   0  0  0  0  0  0  0  0  0  0  0  0
    1.8206    2.2511   -0.8658 C   0  0  0  0  0  0  0  0  0  0  0  0
    3.7517    1.0063   -2.1089 C   0  0  0  0  0  0  0  0  0  0  0  0
    4.7530   -0.0826   -1.7455 C   0  0  0  0  0  0  0  0  0  0  0  0
    5.3809    0.3449   -0.4305 C   0  0  0  0  0  0  0  0  0  0  0  0
    4.3920    0.0392    0.6771 C   0  0  0  0  0  0  0  0  0  0  0  0
    4.7794    0.9181    1.8606 C   0  0  0  0  0  0  0  0  0  0  0  0
    4.3644   -1.4196    1.0303 C   0  0  0  0  0  0  0  0  0  0  0  0
   -0.8083   -0.7455   -0.7301 C   0  0  0  0  0  0  0  0  0  0  0  0
   -2.1466   -1.2384   -1.0551 C   0  0  0  0  0  0  0  0  0  0  0  0
   -3.2373   -0.5916   -0.6839 C   0  0  0  0  0  0  0  0  0  0  0  0
   -4.4562   -1.3332   -0.3509 C   0  0  0  0  0  0  0  0  0  0  0  0
   -4.4527   -2.8086   -0.1142 C   0  0  0  0  0  0  0  0  0  0  0  0
   -5.5104   -0.6544    0.0985 C   0  0  0  0  0  0  0  0  0  0  0  0
   -5.3823    0.7631    0.4460 C   0  0  0  0  0  0  0  0  0  0  0  0
   -4.9579    1.0009    1.6150 O   0  0  0  0  0  0  0  0  0  0  0  0
   -4.8979    1.6009   -0.5629 O   0  0  0  0  0  0  0  0  0  0  0  0
  1  2  1  0
  2  3  1  0
  3  4  2  0
  4  5  1  0
  5  6  2  0
  6  7  1  0
  6  8  1  0
  8  9  1  0
  9 10  1  0
 10 11  1  0
 11 12  1  0
 11 13  1  0
  2 14  2  0
 14 15  1  0
 15 16  2  0
 16 17  1  0
 17 18  1  0
 17 19  2  0
 19 20  1  0
 20 21  2  0
 20 22  1  0
 11  5  1  0
M  END
>  <zinc_id>  (39) 
ZINC000003792789

>  <smiles>  (39) 
CC1=C(/C=C/C(C)=C/C=C/C(C)=C\C(=O)O)C(C)(C)CCC1

$$$$

     RDKit          3D

 25 26  0  0  0  0  0  0  0  0999 V2000
    7.9715   -0.2716    2.2165 C   0  0  0  0  0  0  0  0  0  0  0  0
    6.8285   -0.0430    1.9007 C   0  0  0  0  0  0  0  0  0  0  0  0
    6.4475   -0.6902    0.6228 C   0  0  0  0  0  0  0  0  0  0  0  0
    4.9616   -0.4571    0.3635 C   0  0  0  0  0  0  0  0  0  0  0  0
    4.9297    0.5229   -0.8074 C   0  0  0  0  0  0  0  0  0  0  0  0
    4.2307   -0.4136   -1.9822 C   0  0  2  0  0  0  0  0  0  0  0  0
    3.9521    0.8146   -2.8420 O   0  0  0  0  0  0  0  0  0  0  0  0
    2.8022   -0.3261   -1.2223 C   0  0  0  0  0  0  0  0  0  0  0  0
    1.7758   -0.9212   -1.7513 C   0  0  0  0  0  0  0  0  0  0  0  0
    0.5252   -0.0161   -1.3679 C   0  0  1  0  0  0  0  0  0  0  0  0
   -0.3013   -0.4461   -2.7798 C   0  0  2  0  0  0  0  0  0  0  0  0
    0.0864    0.8686   -3.4304 O   0  0  0  0  0  0  0  0  0  0  0  0
   -1.5590    0.2280   -1.9714 C   0  0  0  0  0  0  0  0  0  0  0  0
   -1.6922   -1.2240   -1.2372 C   0  0  2  0  0  0  0  0  0  0  0  0
   -2.4640   -0.6480   -0.0489 O   0  0  0  0  0  0  0  0  0  0  0  0
   -1.7681    0.4449    0.3719 C   0  0  0  0  0  0  0  0  0  0  0  0
   -2.2852    1.2225    1.3344 C   0  0  0  0  0  0  0  0  0  0  0  0
   -3.6796    1.6888    1.2838 C   0  0  0  0  0  0  0  0  0  0  0  0
   -4.6602    0.6187    0.8922 C   0  0  0  0  0  0  0  0  0  0  0  0
   -5.0237   -0.2879    2.0274 C   0  0  0  0  0  0  0  0  0  0  0  0
   -6.3719    0.0024    2.5928 C   0  0  0  0  0  0  0  0  0  0  0  0
   -7.2989    0.2097    1.7530 O   0  0  0  0  0  0  0  0  0  0  0  0
   -6.6892   -0.5396    3.8287 O   0  0  0  0  0  0  0  0  0  0  0  0
   -0.5275   -0.1951    0.7141 C   0  0  0  0  0  0  0  0  0  0  0  0
   -0.1903   -1.2207   -0.4610 C   0  0  2  0  0  0  0  0  0  0  0  0
  1  2  1  0
  2  3  1  0
  3  4  1  0
  4  5  1  0
  6  5  1  1
  6  7  1  0
  6  8  1  0
  8  9  2  0
 10  9  1  6
 10 11  1  0
 11 12  1  6
 11 13  1  0
 14 13  1  6
 14 15  1  0
 15 16  1  0
 16 17  2  0
 17 18  1  0
 18 19  1  0
 19 20  1  0
 20 21  1  0
 21 22  2  0
 21 23  1  0
 16 24  1  0
 25 24  1  1
 25 10  1  0
 25 14  1  0
M  END
>  <zinc_id>  (40) 
ZINC000003813078

>  <smiles>  (40) 
CCCCC[C@H](O)/C=C/[C@H]1[C@H](O)C[C@@H]2O/C(=C\CCCC(=O)O)C[C@@H]21

$$$$

     RDKit          3D

 23 24  0  0  0  0  0  0  0  0999 V2000
    5.5584    1.2866   -1.5899 N   0  0  0  0  0  0  0  0  0  0  0  0
    4.1808    1.6637   -0.8536 C   0  0  1  0  0  0  0  0  0  0  0  0
    3.6732    0.0685   -0.8728 C   0  0  0  0  0  0  0  0  0  0  0  0
    2.2091    0.1617   -0.5581 C   0  0  0  0  0  0  0  0  0  0  0  0
    1.7803   -0.2767    0.6847 C   0  0  0  0  0  0  0  0  0  0  0  0
    0.6568   -1.0271    0.8936 C   0  0  0  0  0  0  0  0  0  0  0  0
    0.2468   -1.9827    2.7363 I   0  0  0  0  0  0  0  0  0  0  0  0
   -0.1268   -1.3766   -0.2000 C   0  0  0  0  0  0  0  0  0  0  0  0
   -1.3963   -1.8374    0.1003 O   0  0  0  0  0  0  0  0  0  0  0  0
   -2.3370   -1.0075    0.7248 C   0  0  0  0  0  0  0  0  0  0  0  0
   -2.0664    0.3110    1.0381 C   0  0  0  0  0  0  0  0  0  0  0  0
   -2.9663    1.3360    0.7679 C   0  0  0  0  0  0  0  0  0  0  0  0
   -4.2280    1.0048    0.2868 C   0  0  0  0  0  0  0  0  0  0  0  0
   -4.8951    1.7552   -0.6606 O   0  0  0  0  0  0  0  0  0  0  0  0
   -4.6190   -0.3095    0.5190 C   0  0  0  0  0  0  0  0  0  0  0  0
   -6.6958   -0.6651    0.5759 I   0  0  0  0  0  0  0  0  0  0  0  0
   -3.6874   -1.3332    0.6412 C   0  0  0  0  0  0  0  0  0  0  0  0
    0.1296   -0.7491   -1.4026 C   0  0  0  0  0  0  0  0  0  0  0  0
   -1.1881   -0.9995   -3.0321 I   0  0  0  0  0  0  0  0  0  0  0  0
    1.2579    0.0476   -1.5685 C   0  0  0  0  0  0  0  0  0  0  0  0
    4.8430    1.5083    0.6404 C   0  0  0  0  0  0  0  0  0  0  0  0
    4.0584    2.0040    1.4866 O   0  0  0  0  0  0  0  0  0  0  0  0
    5.6116    0.4170    0.8565 O   0  0  0  0  0  0  0  0  0  0  0  0
  2  1  1  6
  2  3  1  0
  3  4  1  0
  4  5  2  0
  5  6  1  0
  6  7  1  0
  6  8  2  0
  8  9  1  0
  9 10  1  0
 10 11  2  0
 11 12  1  0
 12 13  2  0
 13 14  1  0
 13 15  1  0
 15 16  1  0
 15 17  2  0
  8 18  1  0
 18 19  1  0
 18 20  2  0
  2 21  1  0
 21 22  2  0
 21 23  1  0
 20  4  1  0
 17 10  1  0
M  END
>  <zinc_id>  (41) 
ZINC000003830999

>  <smiles>  (41) 
N[C@@H](Cc1cc(I)c(Oc2ccc(O)c(I)c2)c(I)c1)C(=O)O

$$$$

     RDKit          3D

 28 31  0  0  0  0  0  0  0  0999 V2000
    3.6141   -1.1973   -2.1231 C   0  0  0  0  0  0  0  0  0  0  0  0
    3.5021   -0.3607   -0.7417 C   0  0  2  0  0  0  0  0  0  0  0  0
    4.5019   -1.3492    0.0563 C   0  0  0  0  0  0  0  0  0  0  0  0
    5.4817   -0.4372    0.7785 C   0  0  0  0  0  0  0  0  0  0  0  0
    6.6542   -0.3558   -0.1284 C   0  0  0  0  0  0  0  0  0  0  0  0
    6.7596    0.5652   -0.9843 O   0  0  0  0  0  0  0  0  0  0  0  0
    7.4240   -1.4886   -0.3336 O   0  0  0  0  0  0  0  0  0  0  0  0
    2.1287   -1.2226   -0.2810 C   0  0  1  0  0  0  0  0  0  0  0  0
    2.3120   -0.8488    1.2811 C   0  0  0  0  0  0  0  0  0  0  0  0
    1.0577   -0.1853    1.6632 C   0  0  0  0  0  0  0  0  0  0  0  0
    0.1356   -0.6847    0.4318 C   0  0  1  0  0  0  0  0  0  0  0  0
   -0.9814    0.5853    0.3659 C   0  0  2  0  0  0  0  0  0  0  0  0
   -1.6379   -0.1154    1.7520 C   0  0  2  0  0  0  0  0  0  0  0  0
   -1.8258   -1.5169    1.1499 O   0  0  0  0  0  0  0  0  0  0  0  0
   -3.2231    0.2170    1.5620 C   0  0  0  0  0  0  0  0  0  0  0  0
   -3.3159    1.3703    0.4138 C   0  0  2  0  0  0  0  0  0  0  0  0
   -4.9407    1.0969    0.5582 C   0  0  0  0  0  0  0  0  0  0  0  0
   -5.5568    1.5532   -0.8746 C   0  0  2  0  0  0  0  0  0  0  0  0
   -6.9953    1.4029   -0.3879 O   0  0  0  0  0  0  0  0  0  0  0  0
   -5.5450    0.0103   -1.4558 C   0  0  0  0  0  0  0  0  0  0  0  0
   -4.1790   -0.5480   -0.9746 C   0  0  0  0  0  0  0  0  0  0  0  0
   -3.1207    0.4914   -0.9398 C   0  0  1  0  0  0  0  0  0  0  0  0
   -3.0593    1.5350   -2.0055 C   0  0  0  0  0  0  0  0  0  0  0  0
   -1.7303   -0.3022   -0.8466 C   0  0  1  0  0  0  0  0  0  0  0  0
   -0.8481    0.5576   -1.9299 C   0  0  0  0  0  0  0  0  0  0  0  0
    0.5578   -0.0561   -1.9108 C   0  0  0  0  0  0  0  0  0  0  0  0
    1.1540    0.0260   -0.5873 C   0  0  2  0  0  0  0  0  0  0  0  0
    1.6761    1.2578   -0.0570 C   0  0  0  0  0  0  0  0  0  0  0  0
  2  1  1  6
  2  3  1  0
  3  4  1  0
  4  5  1  0
  5  6  2  0
  5  7  1  0
  2  8  1  0
  8  9  1  1
  9 10  1  0
 11 10  1  1
 11 12  1  0
 12 13  1  1
 13 14  1  6
 13 15  1  0
 16 15  1  1
 16 17  1  0
 17 18  1  0
 18 19  1  1
 18 20  1  0
 20 21  1  0
 21 22  1  0
 22 23  1  6
 22 24  1  0
 24 25  1  6
 25 26  1  0
 26 27  1  0
 27 28  1  1
 27  8  1  0
 27 11  1  0
 24 12  1  0
 22 16  1  0
M  END
>  <zinc_id>  (42) 
ZINC000003914808

>  <smiles>  (42) 
C[C@H](CCC(=O)O)[C@H]1CC[C@H]2[C@H]3[C@H](CC[C@@]21C)[C@@]1(C)CC[C@@H](O)C[C@H]1C[C@H]3O

$$$$

     RDKit          3D

  9  9  0  0  0  0  0  0  0  0999 V2000
    2.0172   -0.1487    0.8554 O   0  0  0  0  0  0  0  0  0  0  0  0
    1.6566    0.0155    0.0166 C   0  0  0  0  0  0  0  0  0  0  0  0
    2.2396    0.8625   -0.9231 O   0  0  0  0  0  0  0  0  0  0  0  0
    0.3338   -0.7540   -0.5078 C   0  0  2  0  0  0  0  0  0  0  0  0
   -0.4254    0.6385   -0.8879 C   0  0  0  0  0  0  0  0  0  0  0  0
   -1.9676    0.1848   -0.5382 C   0  0  2  0  0  0  0  0  0  0  0  0
   -1.9770    1.0519    0.7124 O   0  0  0  0  0  0  0  0  0  0  0  0
   -1.5550   -1.1414    0.3478 C   0  0  0  0  0  0  0  0  0  0  0  0
   -0.3222   -0.7092    0.9248 N   0  0  0  0  0  0  0  0  0  0  0  0
  1  2  2  0
  2  3  1  0
  4  2  1  1
  4  5  1  0
  5  6  1  0
  6  7  1  1
  6  8  1  0
  8  9  1  0
  9  4  1  0
M  END
>  <zinc_id>  (43) 
ZINC000000901736

>  <smiles>  (43) 
O=C(O)[C@@H]1C[C@H](O)CN1

$$$$

     RDKit          3D

 12 12  0  0  0  0  0  0  0  0999 V2000
    1.0180   -0.8393   -1.4469 N   0  0  0  0  0  0  0  0  0  0  0  0
    1.4088    0.4338   -0.5508 C   0  0  1  0  0  0  0  0  0  0  0  0
    0.6143   -0.2145    0.7719 C   0  0  0  0  0  0  0  0  0  0  0  0
   -0.7965   -0.0478    0.4080 C   0  0  0  0  0  0  0  0  0  0  0  0
   -1.6706   -1.0458    0.7794 C   0  0  0  0  0  0  0  0  0  0  0  0
   -3.0265   -0.7802    0.7084 C   0  0  0  0  0  0  0  0  0  0  0  0
   -3.4648    0.4155    0.1991 C   0  0  0  0  0  0  0  0  0  0  0  0
   -2.6097    1.3333   -0.3681 C   0  0  0  0  0  0  0  0  0  0  0  0
   -1.2598    1.0013   -0.3340 C   0  0  0  0  0  0  0  0  0  0  0  0
    2.8253   -0.2489   -0.0729 C   0  0  0  0  0  0  0  0  0  0  0  0
    3.5192   -0.6507   -1.0366 O   0  0  0  0  0  0  0  0  0  0  0  0
    3.4422    0.6432    0.7923 O   0  0  0  0  0  0  0  0  0  0  0  0
  2  1  1  6
  2  3  1  0
  3  4  1  0
  4  5  2  0
  5  6  1  0
  6  7  2  0
  7  8  1  0
  8  9  2  0
  2 10  1  0
 10 11  2  0
 10 12  1  0
  9  4  1  0
M  END
>  <zinc_id>  (44) 
ZINC000000105196

>  <smiles>  (44) 
N[C@@H](Cc1ccccc1)C(=O)O

$$$$

     RDKit          3D

 14 15  0  0  0  0  0  0  0  0999 V2000
    0.2898   -1.5615   -1.9073 O   0  0  0  0  0  0  0  0  0  0  0  0
    0.1402   -1.1919   -0.7027 C   0  0  0  0  0  0  0  0  0  0  0  0
   -1.2313   -0.8101   -0.3418 C   0  0  0  0  0  0  0  0  0  0  0  0
   -1.5658   -0.7265    0.9999 C   0  0  0  0  0  0  0  0  0  0  0  0
   -2.6358    0.0126    1.4424 C   0  0  0  0  0  0  0  0  0  0  0  0
   -3.3865    0.7654    0.5601 C   0  0  0  0  0  0  0  0  0  0  0  0
   -3.0163    0.7777   -0.7796 C   0  0  0  0  0  0  0  0  0  0  0  0
   -1.9561    0.0060   -1.2004 C   0  0  0  0  0  0  0  0  0  0  0  0
    1.2272   -0.3508   -0.1866 C   0  0  0  0  0  0  0  0  0  0  0  0
    0.9722    0.9758    0.1323 C   0  0  0  0  0  0  0  0  0  0  0  0
    1.9053    1.6165    0.9317 C   0  0  0  0  0  0  0  0  0  0  0  0
    3.2417    1.3387    0.6705 C   0  0  0  0  0  0  0  0  0  0  0  0
    3.5196    0.0160    0.3481 C   0  0  0  0  0  0  0  0  0  0  0  0
    2.4959   -0.8678    0.0335 C   0  0  0  0  0  0  0  0  0  0  0  0
  1  2  2  0
  2  3  1  0
  3  4  2  0
  4  5  1  0
  5  6  2  0
  6  7  1  0
  7  8  2  0
  2  9  1  0
  9 10  2  0
 10 11  1  0
 11 12  2  0
 12 13  1  0
 13 14  2  0
  8  3  1  0
 14  9  1  0
M  END
>  <zinc_id>  (45) 
ZINC000000968233

>  <smiles>  (45) 
O=C(c1ccccc1)c1ccccc1

$$$$

     RDKit          3D

  8  7  0  0  0  0  0  0  0  0999 V2000
    2.0942    0.0760   -0.9709 C   0  0  0  0  0  0  0  0  0  0  0  0
    1.1634    0.7373   -0.0257 C   0  0  0  0  0  0  0  0  0  0  0  0
    1.0965    0.1786    1.3357 C   0  0  0  0  0  0  0  0  0  0  0  0
   -0.3263    0.6656   -0.7143 C   0  0  2  0  0  0  0  0  0  0  0  0
   -0.9552    1.5547    0.4268 N   0  0  0  0  0  0  0  0  0  0  0  0
   -0.6896   -0.7499   -0.0413 C   0  0  0  0  0  0  0  0  0  0  0  0
   -1.2935   -0.8042    1.0189 O   0  0  0  0  0  0  0  0  0  0  0  0
   -1.0896   -1.6581   -1.0290 O   0  0  0  0  0  0  0  0  0  0  0  0
  1  2  1  0
  2  3  1  0
  4  2  1  1
  4  5  1  0
  4  6  1  0
  6  7  2  0
  6  8  1  0
M  END
>  <zinc_id>  (46) 
ZINC000000895099

>  <smiles>  (46) 
CC(C)[C@H](N)C(=O)O

$$$$

     RDKit          3D

  8  7  0  0  0  0  0  0  0  0999 V2000
    2.3964   -0.2474    0.2783 C   0  0  0  0  0  0  0  0  0  0  0  0
    1.0786    0.6175    0.7232 C   0  0  1  0  0  0  0  0  0  0  0  0
    0.8251    1.0777   -0.6892 O   0  0  0  0  0  0  0  0  0  0  0  0
    0.0305   -0.7527    0.6662 C   0  0  2  0  0  0  0  0  0  0  0  0
    0.4801   -1.2800   -0.7404 N   0  0  0  0  0  0  0  0  0  0  0  0
   -1.2053    0.1025    0.1248 C   0  0  0  0  0  0  0  0  0  0  0  0
   -2.2347    0.1099    0.8227 O   0  0  0  0  0  0  0  0  0  0  0  0
   -1.3706    0.3725   -1.1855 O   0  0  0  0  0  0  0  0  0  0  0  0
  2  1  1  6
  2  3  1  0
  2  4  1  0
  4  5  1  6
  4  6  1  0
  6  7  2  0
  6  8  1  0
M  END
>  <zinc_id>  (47) 
ZINC000000895103

>  <smiles>  (47) 
C[C@@H](O)[C@H](N)C(=O)O

$$$$

     RDKit          3D

  9  9  0  0  0  0  0  0  0  0999 V2000
   -2.2411    0.7546    0.2910 O   0  0  0  0  0  0  0  0  0  0  0  0
   -1.6889   -0.1069    0.2588 C   0  0  0  0  0  0  0  0  0  0  0  0
   -2.2758   -1.2997    0.7083 O   0  0  0  0  0  0  0  0  0  0  0  0
   -0.1218   -0.0370    0.7525 C   0  0  1  0  0  0  0  0  0  0  0  0
    0.4046   -0.8249   -0.6113 C   0  0  0  0  0  0  0  0  0  0  0  0
    1.8998   -0.0654   -0.6835 C   0  0  2  0  0  0  0  0  0  0  0  0
    2.4394   -0.9435    0.4735 O   0  0  0  0  0  0  0  0  0  0  0  0
    1.4714    1.1615    0.3784 C   0  0  0  0  0  0  0  0  0  0  0  0
    0.1123    1.3614   -0.0078 N   0  0  0  0  0  0  0  0  0  0  0  0
  1  2  2  0
  2  3  1  0
  4  2  1  6
  4  5  1  0
  5  6  1  0
  6  7  1  1
  6  8  1  0
  8  9  1  0
  9  4  1  0
M  END
>  <zinc_id>  (48) 
ZINC000000895457

>  <smiles>  (48) 
O=C(O)[C@H]1C[C@H](O)CN1

$$$$

     RDKit          3D

 11 11  0  0  0  0  0  0  0  0999 V2000
    2.4278   -1.7361    0.2024 C   0  0  0  0  0  0  0  0  0  0  0  0
    1.7415   -0.5811   -0.2686 C   0  0  0  0  0  0  0  0  0  0  0  0
    2.4062    0.6615   -0.5297 C   0  0  0  0  0  0  0  0  0  0  0  0
    0.5432   -0.4256    0.8109 C   0  0  2  0  0  0  0  0  0  0  0  0
   -0.4564   -1.2103   -0.1998 C   0  0  0  0  0  0  0  0  0  0  0  0
   -0.7711   -0.3433   -1.3534 C   0  0  0  0  0  0  0  0  0  0  0  0
   -2.0464    0.5756   -0.8720 C   0  0  1  0  0  0  0  0  0  0  0  0
   -2.8959   -0.7272   -0.3376 C   0  0  0  0  0  0  0  0  0  0  0  0
   -1.4593    0.8723    0.6319 C   0  0  0  0  0  0  0  0  0  0  0  0
    0.1240    1.1569    0.2712 C   0  0  1  0  0  0  0  0  0  0  0  0
    0.3865    1.7573    1.6446 O   0  0  0  0  0  0  0  0  0  0  0  0
  1  2  1  0
  2  3  1  0
  4  2  1  6
  4  5  1  0
  5  6  1  0
  6  7  1  0
  7  8  1  1
  7  9  1  0
  9 10  1  0
 10 11  1  1
 10  4  1  0
M  END
>  <zinc_id>  (49) 
ZINC000001482164

>  <smiles>  (49) 
CC(C)[C@@H]1CC[C@@H](C)C[C@H]1O

$$$$

     RDKit          3D

 12 11  0  0  0  0  0  0  0  0999 V2000
    3.9250   -0.8702    0.6314 N   0  0  0  0  0  0  0  0  0  0  0  0
    3.5830    0.2190    0.3030 C   0  0  0  0  0  0  0  0  0  0  0  0
    4.5176    1.2972    0.1931 N   0  0  0  0  0  0  0  0  0  0  0  0
    2.2045    0.6005    0.3965 N   0  0  0  0  0  0  0  0  0  0  0  0
    1.3352   -0.4568    0.8317 C   0  0  0  0  0  0  0  0  0  0  0  0
   -0.0511   -0.1203    1.0999 C   0  0  0  0  0  0  0  0  0  0  0  0
   -1.1137   -0.9281    0.4141 C   0  0  0  0  0  0  0  0  0  0  0  0
   -2.3898    0.0291    0.8384 C   0  0  2  0  0  0  0  0  0  0  0  0
   -3.3644   -1.2075    0.9348 N   0  0  0  0  0  0  0  0  0  0  0  0
   -2.7782    0.3434   -0.6928 C   0  0  0  0  0  0  0  0  0  0  0  0
   -2.7996   -0.5686   -1.4987 O   0  0  0  0  0  0  0  0  0  0  0  0
   -3.0686    1.6625   -0.8601 O   0  0  0  0  0  0  0  0  0  0  0  0
  1  2  2  0
  2  3  1  0
  2  4  1  0
  4  5  1  0
  5  6  1  0
  6  7  1  0
  8  7  1  6
  8  9  1  0
  8 10  1  0
 10 11  2  0
 10 12  1  0
M  END
>  <zinc_id>  (50) 
ZINC000001532525

>  <smiles>  (50) 
N=C(N)NCCC[C@H](N)C(=O)O

$$$$

     RDKit          3D

  9  8  0  0  0  0  0  0  0  0999 V2000
    3.0584    1.0418    0.1963 C   0  0  0  0  0  0  0  0  0  0  0  0
    3.0400   -0.7667    0.0345 S   0  0  0  0  0  0  0  0  0  0  0  0
    1.3361   -1.2270   -0.4186 C   0  0  0  0  0  0  0  0  0  0  0  0
    0.4385   -0.4377    0.5177 C   0  0  0  0  0  0  0  0  0  0  0  0
   -0.4741    0.4564   -0.5190 C   0  0  2  0  0  0  0  0  0  0  0  0
   -0.6170    1.6244    0.5336 N   0  0  0  0  0  0  0  0  0  0  0  0
   -1.8763   -0.1755   -0.0635 C   0  0  0  0  0  0  0  0  0  0  0  0
   -1.9773   -1.1528    0.6257 O   0  0  0  0  0  0  0  0  0  0  0  0
   -2.9284    0.6369   -0.4056 O   0  0  0  0  0  0  0  0  0  0  0  0
  1  2  1  0
  2  3  1  0
  3  4  1  0
  5  4  1  1
  5  6  1  0
  5  7  1  0
  7  8  2  0
  7  9  1  0
M  END
>  <zinc_id>  (51) 
ZINC000001532529

>  <smiles>  (51) 
CSCC[C@H](N)C(=O)O

$$$$

     RDKit          3D

  4  3  0  0  0  0  0  0  0  0999 V2000
    1.2973   -0.5906   -0.1102 C   0  0  0  0  0  0  0  0  0  0  0  0
    0.0048    0.0381    0.3387 C   0  0  0  0  0  0  0  0  0  0  0  0
   -1.1835   -0.7873   -0.1073 C   0  0  0  0  0  0  0  0  0  0  0  0
   -0.1186    1.3399   -0.1212 O   0  0  0  0  0  0  0  0  0  0  0  0
  1  2  1  0
  2  3  1  0
  2  4  1  0
M  END
>  <zinc_id>  (52) 
ZINC000000901159

>  <smiles>  (52) 
CC(C)O

$$$$

     RDKit          3D

 22 22  0  0  0  0  0  0  0  0999 V2000
    4.3689    1.7279   -0.9595 C   0  0  0  0  0  0  0  0  0  0  0  0
    4.1871    0.2751   -0.7821 C   0  0  0  0  0  0  0  0  0  0  0  0
    2.8962   -0.3435   -0.4560 C   0  0  0  0  0  0  0  0  0  0  0  0
    1.8984    0.3068    0.0962 C   0  0  0  0  0  0  0  0  0  0  0  0
    1.1558   -0.1908    1.2614 C   0  0  0  0  0  0  0  0  0  0  0  0
    0.1643   -1.0413    0.9952 C   0  0  0  0  0  0  0  0  0  0  0  0
   -0.2603   -1.9370    2.1171 C   0  0  0  0  0  0  0  0  0  0  0  0
   -0.8046   -0.5749   -0.0040 C   0  0  0  0  0  0  0  0  0  0  0  0
   -2.0780   -0.8224    0.2171 C   0  0  0  0  0  0  0  0  0  0  0  0
   -3.1779   -0.0305   -0.2858 C   0  0  0  0  0  0  0  0  0  0  0  0
   -3.3240    1.1971    0.2011 C   0  0  0  0  0  0  0  0  0  0  0  0
   -2.5588    1.7085    1.3642 C   0  0  0  0  0  0  0  0  0  0  0  0
   -4.2211    2.1403   -0.5235 C   0  0  0  0  0  0  0  0  0  0  0  0
   -5.5077    1.3874   -0.8260 C   0  0  0  0  0  0  0  0  0  0  0  0
   -5.1698    0.1571   -1.6459 C   0  0  0  0  0  0  0  0  0  0  0  0
   -4.3856   -0.7752   -0.7608 C   0  0  0  0  0  0  0  0  0  0  0  0
   -5.2839   -1.1615    0.4053 C   0  0  0  0  0  0  0  0  0  0  0  0
   -3.9546   -2.0344   -1.4594 C   0  0  0  0  0  0  0  0  0  0  0  0
    5.2521   -0.5150   -0.6523 C   0  0  0  0  0  0  0  0  0  0  0  0
    6.5585    0.0308   -0.2647 C   0  0  0  0  0  0  0  0  0  0  0  0
    7.5665   -0.4636   -0.8394 O   0  0  0  0  0  0  0  0  0  0  0  0
    6.6783    0.9593    0.7666 O   0  0  0  0  0  0  0  0  0  0  0  0
  1  2  1  0
  2  3  1  0
  3  4  2  0
  4  5  1  0
  5  6  2  0
  6  7  1  0
  6  8  1  0
  8  9  2  0
  9 10  1  0
 10 11  2  0
 11 12  1  0
 11 13  1  0
 13 14  1  0
 14 15  1  0
 15 16  1  0
 16 17  1  0
 16 18  1  0
  2 19  2  0
 19 20  1  0
 20 21  2  0
 20 22  1  0
 16 10  1  0
M  END
>  <zinc_id>  (53) 
ZINC000012661824

>  <smiles>  (53) 
CC1=C(/C=C/C(C)=C\C=C\C(C)=C\C(=O)O)C(C)(C)CCC1

$$$$

     RDKit          3D

 10  9  0  0  0  0  0  0  0  0999 V2000
   -3.2090    0.7350    0.6413 N   0  0  0  0  0  0  0  0  0  0  0  0
   -2.4789   -0.2624    0.0886 C   0  0  0  0  0  0  0  0  0  0  0  0
   -2.7811   -0.6447   -1.0808 O   0  0  0  0  0  0  0  0  0  0  0  0
   -1.0689   -0.4681    0.4913 C   0  0  0  0  0  0  0  0  0  0  0  0
   -0.1209    0.5816   -0.0741 C   0  0  0  0  0  0  0  0  0  0  0  0
    1.0669    0.5125    1.1000 C   0  0  2  0  0  0  0  0  0  0  0  0
    1.7304    1.8787    0.5962 N   0  0  0  0  0  0  0  0  0  0  0  0
    2.0619   -0.3723    0.1441 C   0  0  0  0  0  0  0  0  0  0  0  0
    3.2173   -0.2847    0.6579 O   0  0  0  0  0  0  0  0  0  0  0  0
    1.5824   -1.6757   -0.0238 O   0  0  0  0  0  0  0  0  0  0  0  0
  1  2  1  0
  2  3  2  0
  2  4  1  0
  4  5  1  0
  6  5  1  6
  6  7  1  0
  6  8  1  0
  8  9  2  0
  8 10  1  0
M  END
>  <zinc_id>  (54) 
ZINC000001532526

>  <smiles>  (54) 
NC(=O)CC[C@H](N)C(=O)O

$$$$

     RDKit          3D

  6  5  0  0  0  0  0  0  0  0999 V2000
    1.1934    1.1812   -0.4269 C   0  0  0  0  0  0  0  0  0  0  0  0
    0.7337   -0.3990   -0.5615 C   0  0  1  0  0  0  0  0  0  0  0  0
    1.4008   -0.7438    0.7661 O   0  0  0  0  0  0  0  0  0  0  0  0
   -0.7032   -0.1863    0.1556 C   0  0  0  0  0  0  0  0  0  0  0  0
   -1.5249   -0.8523   -0.5484 O   0  0  0  0  0  0  0  0  0  0  0  0
   -1.0997    1.0001    0.6152 O   0  0  0  0  0  0  0  0  0  0  0  0
  2  1  1  1
  2  3  1  0
  2  4  1  0
  4  5  2  0
  4  6  1  0
M  END
>  <zinc_id>  (55) 
ZINC000004658562

>  <smiles>  (55) 
C[C@@H](O)C(=O)O

$$$$

     RDKit          3D

  5  4  0  0  0  0  0  0  0  0999 V2000
    1.8955   -0.0463   -0.4186 N   0  0  0  0  0  0  0  0  0  0  0  0
    0.8833   -0.0950    0.6107 C   0  0  0  0  0  0  0  0  0  0  0  0
   -0.4799    0.0431    0.0405 C   0  0  0  0  0  0  0  0  0  0  0  0
   -1.0124    1.1709   -0.0951 O   0  0  0  0  0  0  0  0  0  0  0  0
   -1.2865   -1.0727   -0.1376 O   0  0  0  0  0  0  0  0  0  0  0  0
  1  2  1  0
  2  3  1  0
  3  4  2  0
  3  5  1  0
M  END
>  <zinc_id>  (56) 
ZINC000004658552

>  <smiles>  (56) 
NCC(=O)O

$$$$

     RDKit          3D

 17 18  0  0  0  0  0  0  0  0999 V2000
   -3.3900    2.1329   -0.6396 N   0  0  0  0  0  0  0  0  0  0  0  0
   -2.8203    0.8296   -0.5464 C   0  0  0  0  0  0  0  0  0  0  0  0
   -1.7093    0.6079   -1.3528 C   0  0  0  0  0  0  0  0  0  0  0  0
   -0.8291   -0.3005   -0.8456 C   0  0  0  0  0  0  0  0  0  0  0  0
   -0.7172   -0.6973    0.3417 N   0  0  0  0  0  0  0  0  0  0  0  0
    0.5628   -1.0409    1.1836 C   0  0  2  0  0  0  0  0  0  0  0  0
    1.0341    0.3839    1.1617 O   0  0  0  0  0  0  0  0  0  0  0  0
    2.3699    0.3101    0.5197 C   0  0  2  0  0  0  0  0  0  0  0  0
    2.2845    1.8992    0.1122 C   0  0  0  0  0  0  0  0  0  0  0  0
    3.5682    2.2876   -0.1677 O   0  0  0  0  0  0  0  0  0  0  0  0
    1.5458   -0.1481   -0.9055 C   0  0  1  0  0  0  0  0  0  0  0  0
    2.8086   -0.4803   -1.6392 O   0  0  0  0  0  0  0  0  0  0  0  0
    1.5612   -1.6300   -0.0845 C   0  0  2  0  0  0  0  0  0  0  0  0
    0.4928   -2.2978   -0.8909 O   0  0  0  0  0  0  0  0  0  0  0  0
   -1.8498   -0.6024    1.0828 C   0  0  0  0  0  0  0  0  0  0  0  0
   -1.9947   -1.3188    2.1014 O   0  0  0  0  0  0  0  0  0  0  0  0
   -2.9175    0.0646    0.5691 N   0  0  0  0  0  0  0  0  0  0  0  0
  1  2  1  0
  2  3  1  0
  3  4  2  0
  4  5  1  0
  6  5  1  6
  6  7  1  0
  7  8  1  0
  8  9  1  6
  9 10  1  0
  8 11  1  0
 11 12  1  6
 11 13  1  0
 13 14  1  6
  5 15  1  0
 15 16  2  0
 15 17  1  0
 17  2  2  0
 13  6  1  0
M  END
>  <zinc_id>  (57) 
ZINC000003795098

>  <smiles>  (57) 
Nc1ccn([C@@H]2O[C@H](CO)[C@@H](O)[C@@H]2O)c(=O)n1

$$$$

     RDKit          3D

 12 12  0  0  0  0  0  0  0  0999 V2000
    3.4452    1.0414    0.3425 N   0  0  0  0  0  0  0  0  0  0  0  0
    2.2739    0.3539    0.7930 C   0  0  0  0  0  0  0  0  0  0  0  0
    2.1010   -0.9154   -0.3039 C   0  0  2  0  0  0  0  0  0  0  0  0
    2.2283    0.0596   -1.5100 O   0  0  0  0  0  0  0  0  0  0  0  0
    0.4507   -0.8359   -0.2294 C   0  0  0  0  0  0  0  0  0  0  0  0
   -0.0170   -1.1349    1.0495 C   0  0  0  0  0  0  0  0  0  0  0  0
   -1.3864   -0.9772    1.2437 C   0  0  0  0  0  0  0  0  0  0  0  0
   -2.0658   -0.0846    0.4650 C   0  0  0  0  0  0  0  0  0  0  0  0
   -3.3843    0.2242    0.7868 O   0  0  0  0  0  0  0  0  0  0  0  0
   -1.4658    0.4485   -0.6581 C   0  0  0  0  0  0  0  0  0  0  0  0
   -2.0365    1.6476   -1.1021 O   0  0  0  0  0  0  0  0  0  0  0  0
   -0.1433    0.1728   -0.8770 C   0  0  0  0  0  0  0  0  0  0  0  0
  1  2  1  0
  3  2  1  1
  3  4  1  0
  3  5  1  0
  5  6  2  0
  6  7  1  0
  7  8  2  0
  8  9  1  0
  8 10  1  0
 10 11  1  0
 10 12  2  0
 12  5  1  0
M  END
>  <zinc_id>  (58) 
ZINC000000057624

>  <smiles>  (58) 
NC[C@H](O)c1ccc(O)c(O)c1

$$$$

     RDKit          3D

 13 13  0  0  0  0  0  0  0  0999 V2000
    2.5768    1.7097    0.1768 C   0  0  0  0  0  0  0  0  0  0  0  0
    1.6444    0.7151    1.0867 C   0  0  2  0  0  0  0  0  0  0  0  0
    2.8721    0.2606    1.9654 N   0  0  0  0  0  0  0  0  0  0  0  0
    1.7748   -0.7206    0.0886 C   0  0  2  0  0  0  0  0  0  0  0  0
    2.6194   -0.0771   -1.0162 O   0  0  0  0  0  0  0  0  0  0  0  0
    0.4003   -0.4393   -0.7498 C   0  0  0  0  0  0  0  0  0  0  0  0
   -0.3331   -1.6104   -0.9391 C   0  0  0  0  0  0  0  0  0  0  0  0
   -1.6699   -1.7006   -0.5627 C   0  0  0  0  0  0  0  0  0  0  0  0
   -2.3405   -0.5728   -0.0932 C   0  0  0  0  0  0  0  0  0  0  0  0
   -3.1235   -0.6432    1.0675 O   0  0  0  0  0  0  0  0  0  0  0  0
   -1.7493    0.6251   -0.4878 C   0  0  0  0  0  0  0  0  0  0  0  0
   -2.3216    1.8143   -0.0238 O   0  0  0  0  0  0  0  0  0  0  0  0
   -0.3499    0.6392   -0.5125 C   0  0  0  0  0  0  0  0  0  0  0  0
  2  1  1  6
  2  3  1  0
  2  4  1  0
  4  5  1  6
  4  6  1  0
  6  7  2  0
  7  8  1  0
  8  9  2  0
  9 10  1  0
  9 11  1  0
 11 12  1  0
 11 13  2  0
 13  6  1  0
M  END
>  <zinc_id>  (59) 
ZINC000000034157

>  <smiles>  (59) 
C[C@H](N)[C@H](O)c1ccc(O)c(O)c1

$$$$

     RDKit          3D

 10 11  0  0  0  0  0  0  0  0999 V2000
   -1.5230    2.0949   -0.1431 N   0  0  0  0  0  0  0  0  0  0  0  0
   -1.1507    0.7807    0.2885 C   0  0  0  0  0  0  0  0  0  0  0  0
   -1.9353   -0.2314   -0.1531 N   0  0  0  0  0  0  0  0  0  0  0  0
   -1.5588   -1.5095   -0.1213 C   0  0  0  0  0  0  0  0  0  0  0  0
   -0.2547   -1.7817    0.0450 N   0  0  0  0  0  0  0  0  0  0  0  0
    0.6385   -0.7850    0.2642 C   0  0  0  0  0  0  0  0  0  0  0  0
    1.9642   -0.7103   -0.0093 N   0  0  0  0  0  0  0  0  0  0  0  0
    2.3721    0.4333    0.5914 C   0  0  0  0  0  0  0  0  0  0  0  0
    1.2813    1.2337    0.6655 N   0  0  0  0  0  0  0  0  0  0  0  0
    0.1665    0.4754    0.6115 C   0  0  0  0  0  0  0  0  0  0  0  0
  1  2  1  0
  2  3  2  0
  3  4  1  0
  4  5  2  0
  5  6  1  0
  6  7  1  0
  7  8  1  0
  8  9  2  0
  9 10  1  0
 10  2  1  0
 10  6  2  0
M  END
>  <zinc_id>  (60) 
ZINC000000000882

>  <smiles>  (60) 
Nc1ncnc2[nH]cnc12

$$$$

     RDKit          3D

 12 12  0  0  0  0  0  0  0  0999 V2000
    2.9163   -1.1887   -0.6033 C   0  0  0  0  0  0  0  0  0  0  0  0
    1.6792   -0.7482    0.1175 C   0  0  0  0  0  0  0  0  0  0  0  0
    0.9398   -1.6197    0.8474 N   0  0  0  0  0  0  0  0  0  0  0  0
   -0.4014   -1.4649    0.8544 C   0  0  0  0  0  0  0  0  0  0  0  0
   -1.0182   -0.3358    0.3301 C   0  0  0  0  0  0  0  0  0  0  0  0
   -2.4740   -0.3563    0.0253 C   0  0  0  0  0  0  0  0  0  0  0  0
   -2.7212   -1.3828   -0.8790 O   0  0  0  0  0  0  0  0  0  0  0  0
   -0.2671    0.5960   -0.3743 C   0  0  0  0  0  0  0  0  0  0  0  0
   -0.8004    1.9846   -0.4727 C   0  0  0  0  0  0  0  0  0  0  0  0
   -0.9379    2.5099    0.8013 O   0  0  0  0  0  0  0  0  0  0  0  0
    1.1070    0.4745   -0.2102 C   0  0  0  0  0  0  0  0  0  0  0  0
    1.9779    1.5313   -0.4367 O   0  0  0  0  0  0  0  0  0  0  0  0
  1  2  1  0
  2  3  2  0
  3  4  1  0
  4  5  2  0
  5  6  1  0
  6  7  1  0
  5  8  1  0
  8  9  1  0
  9 10  1  0
  8 11  2  0
 11 12  1  0
 11  2  1  0
M  END
>  <zinc_id>  (61) 
ZINC000000049154

>  <smiles>  (61) 
Cc1ncc(CO)c(CO)c1O

$$$$

     RDKit          3D

 10  9  0  0  0  0  0  0  0  0999 V2000
    0.5069    1.4405   -0.5628 N   0  0  0  0  0  0  0  0  0  0  0  0
    0.5485    0.2700    0.5192 C   0  0  1  0  0  0  0  0  0  0  0  0
    0.2368   -0.8925   -0.6277 C   0  0  0  0  0  0  0  0  0  0  0  0
   -0.8948   -0.3724   -1.4438 C   0  0  0  0  0  0  0  0  0  0  0  0
   -2.1852   -0.2733   -0.7373 C   0  0  0  0  0  0  0  0  0  0  0  0
   -2.9273   -1.3015   -0.7856 O   0  0  0  0  0  0  0  0  0  0  0  0
   -2.8237    0.9695   -0.8097 O   0  0  0  0  0  0  0  0  0  0  0  0
    2.1586    0.0837    0.3305 C   0  0  0  0  0  0  0  0  0  0  0  0
    2.8120    1.1369    0.5028 O   0  0  0  0  0  0  0  0  0  0  0  0
    2.5681   -1.0609    1.0033 O   0  0  0  0  0  0  0  0  0  0  0  0
  2  1  1  6
  2  3  1  0
  3  4  1  0
  4  5  1  0
  5  6  2  0
  5  7  1  0
  2  8  1  0
  8  9  2  0
  8 10  1  0
M  END
>  <zinc_id>  (62) 
ZINC000001482113

>  <smiles>  (62) 
N[C@@H](CCC(=O)O)C(=O)O

$$$$

     RDKit          3D

 13 12  0  0  0  0  0  0  0  0999 V2000
   -4.4681   -0.6429    0.8796 O   0  0  0  0  0  0  0  0  0  0  0  0
   -4.3308    0.2470   -0.0131 C   0  0  0  0  0  0  0  0  0  0  0  0
   -4.5126    1.5576    0.3954 O   0  0  0  0  0  0  0  0  0  0  0  0
   -3.2587   -0.0024   -1.0241 C   0  0  0  0  0  0  0  0  0  0  0  0
   -2.1046   -0.6403   -0.3000 C   0  0  0  0  0  0  0  0  0  0  0  0
   -1.1137    0.4559    0.0334 C   0  0  0  0  0  0  0  0  0  0  0  0
    0.2584   -0.0059   -0.4231 C   0  0  0  0  0  0  0  0  0  0  0  0
    0.7890   -1.0270    0.5773 C   0  0  0  0  0  0  0  0  0  0  0  0
    2.2919   -1.0958    0.3241 C   0  0  0  0  0  0  0  0  0  0  0  0
    2.7327    0.3482    0.1143 C   0  0  0  0  0  0  0  0  0  0  0  0
    4.2001    0.3872   -0.0818 C   0  0  0  0  0  0  0  0  0  0  0  0
    4.8661   -0.5135    0.5009 O   0  0  0  0  0  0  0  0  0  0  0  0
    4.6502    0.9319   -1.2858 O   0  0  0  0  0  0  0  0  0  0  0  0
  1  2  2  0
  2  3  1  0
  2  4  1  0
  4  5  1  0
  5  6  1  0
  6  7  1  0
  7  8  1  0
  8  9  1  0
  9 10  1  0
 10 11  1  0
 11 12  2  0
 11 13  1  0
M  END
>  <zinc_id>  (63) 
ZINC000001531036

>  <smiles>  (63) 
O=C(O)CCCCCCCC(=O)O

$$$$

     RDKit          3D

 13 12  0  0  0  0  0  0  0  0999 V2000
    2.3413   -1.4625    0.4563 O   0  0  0  0  0  0  0  0  0  0  0  0
    2.3703   -0.2447    0.1539 C   0  0  0  0  0  0  0  0  0  0  0  0
    3.4672    0.3194   -0.5002 O   0  0  0  0  0  0  0  0  0  0  0  0
    1.3277    0.6900    0.6338 C   0  0  0  0  0  0  0  0  0  0  0  0
    0.0304    0.4558   -0.1122 C   0  0  0  0  0  0  0  0  0  0  0  0
    0.2721   -0.0644   -1.3877 O   0  0  0  0  0  0  0  0  0  0  0  0
   -0.7530   -0.5570    0.6987 C   0  0  0  0  0  0  0  0  0  0  0  0
   -1.6819   -1.3518   -0.1606 C   0  0  0  0  0  0  0  0  0  0  0  0
   -2.8369   -1.5517    0.3233 O   0  0  0  0  0  0  0  0  0  0  0  0
   -1.2071   -2.2694   -1.1022 O   0  0  0  0  0  0  0  0  0  0  0  0
   -0.7130    1.7468   -0.2508 C   0  0  0  0  0  0  0  0  0  0  0  0
   -0.7374    2.6016    0.6860 O   0  0  0  0  0  0  0  0  0  0  0  0
   -1.8798    1.6880   -1.0181 O   0  0  0  0  0  0  0  0  0  0  0  0
  1  2  2  0
  2  3  1  0
  2  4  1  0
  4  5  1  0
  5  6  1  0
  5  7  1  0
  7  8  1  0
  8  9  2  0
  8 10  1  0
  5 11  1  0
 11 12  2  0
 11 13  1  0
M  END
>  <zinc_id>  (64) 
ZINC000000895081

>  <smiles>  (64) 
O=C(O)CC(O)(CC(=O)O)C(=O)O

$$$$

     RDKit          3D

 14 14  0  0  0  0  0  0  0  0999 V2000
    3.2229   -0.4940    1.5645 N   0  0  0  0  0  0  0  0  0  0  0  0
    2.3272   -0.8641    0.3103 C   0  0  1  0  0  0  0  0  0  0  0  0
    1.0572    0.0182    0.8846 C   0  0  0  0  0  0  0  0  0  0  0  0
   -0.1611   -0.6349    0.3021 C   0  0  0  0  0  0  0  0  0  0  0  0
   -1.0946   -1.1720    1.1846 C   0  0  0  0  0  0  0  0  0  0  0  0
   -2.4299   -0.7773    1.1694 C   0  0  0  0  0  0  0  0  0  0  0  0
   -2.8981    0.0811    0.1790 C   0  0  0  0  0  0  0  0  0  0  0  0
   -3.7114    1.1664    0.5328 O   0  0  0  0  0  0  0  0  0  0  0  0
   -2.0866    0.1196   -0.9514 C   0  0  0  0  0  0  0  0  0  0  0  0
   -2.6687    0.7205   -2.0598 O   0  0  0  0  0  0  0  0  0  0  0  0
   -0.7339   -0.1984   -0.8897 C   0  0  0  0  0  0  0  0  0  0  0  0
    2.8887    0.3750   -0.5674 C   0  0  0  0  0  0  0  0  0  0  0  0
    3.3250    0.0635   -1.6925 O   0  0  0  0  0  0  0  0  0  0  0  0
    2.9633    1.5964    0.0336 O   0  0  0  0  0  0  0  0  0  0  0  0
  2  1  1  1
  2  3  1  0
  3  4  1  0
  4  5  2  0
  5  6  1  0
  6  7  2  0
  7  8  1  0
  7  9  1  0
  9 10  1  0
  9 11  2  0
  2 12  1  0
 12 13  2  0
 12 14  1  0
 11  4  1  0
M  END
>  <zinc_id>  (65) 
ZINC000000895199

>  <smiles>  (65) 
N[C@@H](Cc1ccc(O)c(O)c1)C(=O)O

$$$$

     RDKit          3D

 10 10  0  0  0  0  0  0  0  0999 V2000
    2.0699    0.1601    1.1754 O   0  0  0  0  0  0  0  0  0  0  0  0
    1.6851   -0.2187    0.0539 C   0  0  0  0  0  0  0  0  0  0  0  0
    2.5585   -0.8202   -0.8491 O   0  0  0  0  0  0  0  0  0  0  0  0
    0.2494   -0.2586   -0.2097 C   0  0  0  0  0  0  0  0  0  0  0  0
   -0.4168   -1.3839    0.2408 C   0  0  0  0  0  0  0  0  0  0  0  0
   -1.8025   -1.3558    0.1863 C   0  0  0  0  0  0  0  0  0  0  0  0
   -2.4664   -0.1365    0.2504 C   0  0  0  0  0  0  0  0  0  0  0  0
   -1.7773    0.9379   -0.2999 C   0  0  0  0  0  0  0  0  0  0  0  0
   -0.3966    0.9448   -0.4051 C   0  0  0  0  0  0  0  0  0  0  0  0
    0.2967    2.1310   -0.1430 O   0  0  0  0  0  0  0  0  0  0  0  0
  1  2  2  0
  2  3  1  0
  2  4  1  0
  4  5  2  0
  5  6  1  0
  6  7  2  0
  7  8  1  0
  8  9  2  0
  9 10  1  0
  9  4  1  0
M  END
>  <zinc_id>  (66) 
ZINC000000001554

>  <smiles>  (66) 
O=C(O)c1ccccc1O

$$$$

     RDKit          3D

 10 10  0  0  0  0  0  0  0  0999 V2000
    2.0730   -0.7756    1.1775 N   0  0  0  0  0  0  0  0  0  0  0  0
    1.7082   -0.1890   -0.0529 C   0  0  0  0  0  0  0  0  0  0  0  0
    2.4924    0.1148   -0.9754 O   0  0  0  0  0  0  0  0  0  0  0  0
    0.2731   -0.1245   -0.3579 C   0  0  0  0  0  0  0  0  0  0  0  0
   -0.4545   -1.2543   -0.7107 C   0  0  0  0  0  0  0  0  0  0  0  0
   -1.7707   -1.3667   -0.2960 C   0  0  0  0  0  0  0  0  0  0  0  0
   -2.3501   -0.4112    0.5281 C   0  0  0  0  0  0  0  0  0  0  0  0
   -1.7382    0.8371    0.5583 C   0  0  0  0  0  0  0  0  0  0  0  0
   -0.4172    0.9617    0.1599 C   0  0  0  0  0  0  0  0  0  0  0  0
    0.1840    2.2077   -0.0309 O   0  0  0  0  0  0  0  0  0  0  0  0
  1  2  1  0
  2  3  2  0
  2  4  1  0
  4  5  2  0
  5  6  1  0
  6  7  2  0
  7  8  1  0
  8  9  2  0
  9 10  1  0
  9  4  1  0
M  END
>  <zinc_id>  (67) 
ZINC000000002055

>  <smiles>  (67) 
NC(=O)c1ccccc1O

$$$$

     RDKit          3D

 17 18  0  0  0  0  0  0  0  0999 V2000
   -3.8572    1.3800    0.7729 C   0  0  0  0  0  0  0  0  0  0  0  0
   -2.8936    0.3156    0.7483 C   0  0  0  0  0  0  0  0  0  0  0  0
   -1.6016    0.6438    1.1498 C   0  0  0  0  0  0  0  0  0  0  0  0
   -0.6255   -0.2232    0.8588 N   0  0  0  0  0  0  0  0  0  0  0  0
    0.8493    0.4393    1.0232 C   0  0  2  0  0  0  0  0  0  0  0  0
    0.6113    1.4330   -0.3227 C   0  0  0  0  0  0  0  0  0  0  0  0
    2.1642    1.3778   -0.8976 C   0  0  1  0  0  0  0  0  0  0  0  0
    2.5335    2.6691   -0.1485 O   0  0  0  0  0  0  0  0  0  0  0  0
    2.7131    0.3757    0.4355 C   0  0  2  0  0  0  0  0  0  0  0  0
    3.7818   -0.4359   -0.5509 C   0  0  0  0  0  0  0  0  0  0  0  0
    4.1479   -1.5491    0.1885 O   0  0  0  0  0  0  0  0  0  0  0  0
    1.5890   -0.6191    0.1285 O   0  0  0  0  0  0  0  0  0  0  0  0
   -0.7546   -1.2228    0.0408 C   0  0  0  0  0  0  0  0  0  0  0  0
    0.1443   -2.1104    0.1631 O   0  0  0  0  0  0  0  0  0  0  0  0
   -2.0009   -1.5011   -0.4125 N   0  0  0  0  0  0  0  0  0  0  0  0
   -2.9632   -0.5495   -0.3370 C   0  0  0  0  0  0  0  0  0  0  0  0
   -3.8378   -0.4232   -1.2466 O   0  0  0  0  0  0  0  0  0  0  0  0
  1  2  1  0
  2  3  2  0
  3  4  1  0
  5  4  1  6
  5  6  1  0
  6  7  1  0
  7  8  1  1
  7  9  1  0
  9 10  1  6
 10 11  1  0
  9 12  1  0
  4 13  1  0
 13 14  2  0
 13 15  1  0
 15 16  1  0
 16 17  2  0
 16  2  1  0
 12  5  1  0
M  END
>  <zinc_id>  (68) 
ZINC000000002159

>  <smiles>  (68) 
Cc1cn([C@@H]2C[C@@H](O)[C@H](CO)O2)c(=O)[nH]c1=O

$$$$

     RDKit          3D

 19 20  0  0  0  0  0  0  0  0999 V2000
    4.2168    0.7434    0.9704 C   0  0  0  0  0  0  0  0  0  0  0  0
    3.8604   -0.2095   -0.0716 N   0  0  0  0  0  0  0  0  0  0  0  0
    5.0815   -0.8419   -0.5116 C   0  0  0  0  0  0  0  0  0  0  0  0
    2.8927   -1.1375    0.4565 C   0  0  0  0  0  0  0  0  0  0  0  0
    1.7240   -1.3496   -0.4649 C   0  0  0  0  0  0  0  0  0  0  0  0
    0.9763   -0.2157   -0.6907 O   0  0  0  0  0  0  0  0  0  0  0  0
   -0.0648   -0.0272    0.1956 C   0  0  0  0  0  0  0  0  0  0  0  0
   -0.7404    1.2446   -0.2151 C   0  0  0  0  0  0  0  0  0  0  0  0
   -1.9638    1.6312    0.3188 C   0  0  0  0  0  0  0  0  0  0  0  0
   -2.2073    2.9451    0.6955 C   0  0  0  0  0  0  0  0  0  0  0  0
   -1.3186    3.9495    0.3345 C   0  0  0  0  0  0  0  0  0  0  0  0
   -0.3551    3.5958   -0.5971 C   0  0  0  0  0  0  0  0  0  0  0  0
   -0.0385    2.2663   -0.8450 C   0  0  0  0  0  0  0  0  0  0  0  0
   -1.0337   -1.1391    0.2035 C   0  0  0  0  0  0  0  0  0  0  0  0
   -0.7637   -2.4176   -0.2101 C   0  0  0  0  0  0  0  0  0  0  0  0
   -1.7788   -3.3478   -0.3656 C   0  0  0  0  0  0  0  0  0  0  0  0
   -3.0677   -2.9206   -0.0756 C   0  0  0  0  0  0  0  0  0  0  0  0
   -3.2592   -1.7793    0.6869 C   0  0  0  0  0  0  0  0  0  0  0  0
   -2.1601   -0.9899    1.0029 C   0  0  0  0  0  0  0  0  0  0  0  0
  1  2  1  0
  2  3  1  0
  2  4  1  0
  4  5  1  0
  5  6  1  0
  6  7  1  0
  7  8  1  0
  8  9  2  0
  9 10  1  0
 10 11  2  0
 11 12  1  0
 12 13  2  0
  7 14  1  0
 14 15  2  0
 15 16  1  0
 16 17  2  0
 17 18  1  0
 18 19  2  0
 13  8  1  0
 19 14  1  0
M  END
>  <zinc_id>  (69) 
ZINC000000020244

>  <smiles>  (69) 
CN(C)CCOC(c1ccccc1)c1ccccc1

$$$$

     RDKit          3D

 15 15  0  0  0  0  0  0  0  0999 V2000
    4.0188   -0.0290   -0.1912 C   0  0  0  0  0  0  0  0  0  0  0  0
    3.7090    0.7847    0.4751 C   0  0  0  0  0  0  0  0  0  0  0  0
    4.4033    2.0541    0.4524 C   0  0  0  0  0  0  0  0  0  0  0  0
    2.3420    0.7426    0.8916 N   0  0  0  0  0  0  0  0  0  0  0  0
    1.6185    0.0632   -0.1869 C   0  0  0  0  0  0  0  0  0  0  0  0
    0.9108   -1.2649    0.5032 C   0  0  2  0  0  0  0  0  0  0  0  0
    1.1217   -2.0914   -0.7649 O   0  0  0  0  0  0  0  0  0  0  0  0
   -0.5572   -0.7792    0.0206 C   0  0  0  0  0  0  0  0  0  0  0  0
   -1.4422   -1.7270   -0.3786 C   0  0  0  0  0  0  0  0  0  0  0  0
   -2.6668   -1.2560   -0.8436 C   0  0  0  0  0  0  0  0  0  0  0  0
   -3.0550    0.0409   -0.5480 C   0  0  0  0  0  0  0  0  0  0  0  0
   -3.9912    0.7577   -1.2989 O   0  0  0  0  0  0  0  0  0  0  0  0
   -2.3330    0.7360    0.4137 C   0  0  0  0  0  0  0  0  0  0  0  0
   -3.0171    1.6859    1.1750 O   0  0  0  0  0  0  0  0  0  0  0  0
   -1.0618    0.2823    0.7515 C   0  0  0  0  0  0  0  0  0  0  0  0
  1  2  1  0
  2  3  1  0
  2  4  1  0
  4  5  1  0
  6  5  1  6
  6  7  1  0
  6  8  1  0
  8  9  2  0
  9 10  1  0
 10 11  2  0
 11 12  1  0
 11 13  1  0
 13 14  1  0
 13 15  2  0
 15  8  1  0
M  END
>  <zinc_id>  (70) 
ZINC000000056652

>  <smiles>  (70) 
CC(C)NC[C@H](O)c1ccc(O)c(O)c1

$$$$

     RDKit          3D

 15 15  0  0  0  0  0  0  0  0999 V2000
    4.2439   -1.2473    0.8380 C   0  0  0  0  0  0  0  0  0  0  0  0
    3.7477   -0.3283    0.4958 C   0  0  0  0  0  0  0  0  0  0  0  0
    4.8234    0.7109    0.2415 C   0  0  0  0  0  0  0  0  0  0  0  0
    3.0529   -0.6577   -0.7446 N   0  0  0  0  0  0  0  0  0  0  0  0
    1.7973    0.0065   -0.8831 C   0  0  0  0  0  0  0  0  0  0  0  0
    0.7471   -0.8298    0.1176 C   0  0  1  0  0  0  0  0  0  0  0  0
    0.9753    0.1879    1.2556 O   0  0  0  0  0  0  0  0  0  0  0  0
   -0.5381   -0.0246   -0.5153 C   0  0  0  0  0  0  0  0  0  0  0  0
   -1.2276   -0.9598   -1.2882 C   0  0  0  0  0  0  0  0  0  0  0  0
   -2.6132   -0.9427   -1.3975 C   0  0  0  0  0  0  0  0  0  0  0  0
   -3.3063    0.0272   -0.7145 C   0  0  0  0  0  0  0  0  0  0  0  0
   -4.6771    0.1479   -0.7082 O   0  0  0  0  0  0  0  0  0  0  0  0
   -2.5932    0.9999   -0.0330 C   0  0  0  0  0  0  0  0  0  0  0  0
   -3.0979    2.2841    0.1976 O   0  0  0  0  0  0  0  0  0  0  0  0
   -1.3344    0.6258    0.3775 C   0  0  0  0  0  0  0  0  0  0  0  0
  1  2  1  0
  2  3  1  0
  2  4  1  0
  4  5  1  0
  6  5  1  6
  6  7  1  0
  6  8  1  0
  8  9  2  0
  9 10  1  0
 10 11  2  0
 11 12  1  0
 11 13  1  0
 13 14  1  0
 13 15  2  0
 15  8  1  0
M  END
>  <zinc_id>  (71) 
ZINC000000056653

>  <smiles>  (71) 
CC(C)NC[C@@H](O)c1ccc(O)c(O)c1

$$$$

     RDKit          3D

 12 12  0  0  0  0  0  0  0  0999 V2000
    3.7947   -0.1202   -0.0692 C   0  0  0  0  0  0  0  0  0  0  0  0
    3.1868   -0.9983   -0.9057 N   0  0  0  0  0  0  0  0  0  0  0  0
    1.7662   -0.7615   -1.0257 C   0  0  0  0  0  0  0  0  0  0  0  0
    1.4614    0.1539    0.3509 C   0  0  2  0  0  0  0  0  0  0  0  0
    1.1193   -1.1166    1.1705 O   0  0  0  0  0  0  0  0  0  0  0  0
   -0.0877    0.4225   -0.1207 C   0  0  0  0  0  0  0  0  0  0  0  0
   -0.4374    1.7512   -0.1682 C   0  0  0  0  0  0  0  0  0  0  0  0
   -1.7819    2.0072    0.0855 C   0  0  0  0  0  0  0  0  0  0  0  0
   -2.7048    0.9715   -0.0099 C   0  0  0  0  0  0  0  0  0  0  0  0
   -2.2775   -0.3272   -0.2616 C   0  0  0  0  0  0  0  0  0  0  0  0
   -3.1242   -1.3560    0.1649 O   0  0  0  0  0  0  0  0  0  0  0  0
   -0.9150   -0.6266   -0.2535 C   0  0  0  0  0  0  0  0  0  0  0  0
  1  2  1  0
  2  3  1  0
  4  3  1  6
  4  5  1  0
  4  6  1  0
  6  7  2  0
  7  8  1  0
  8  9  2  0
  9 10  1  0
 10 11  1  0
 10 12  2  0
 12  6  1  0
M  END
>  <zinc_id>  (72) 
ZINC000000113355

>  <smiles>  (72) 
CNC[C@H](O)c1cccc(O)c1

$$$$

     RDKit          3D

 12 13  0  0  0  0  0  0  0  0999 V2000
   -1.5182    1.5466   -1.3270 C   0  0  0  0  0  0  0  0  0  0  0  0
   -1.5730    0.3068   -0.8037 N   0  0  0  0  0  0  0  0  0  0  0  0
   -2.9371    0.0983   -0.3269 C   0  0  0  0  0  0  0  0  0  0  0  0
   -2.8353   -0.9056    0.7983 C   0  0  0  0  0  0  0  0  0  0  0  0
   -1.3753   -0.9866    1.1430 C   0  0  0  0  0  0  0  0  0  0  0  0
   -0.9084    0.5431    0.6400 C   0  0  1  0  0  0  0  0  0  0  0  0
    0.5371   -0.0403    0.1108 C   0  0  0  0  0  0  0  0  0  0  0  0
    1.1637    0.8154   -0.7661 C   0  0  0  0  0  0  0  0  0  0  0  0
    2.4510    0.4621   -1.1504 C   0  0  0  0  0  0  0  0  0  0  0  0
    3.1407   -0.3630   -0.2728 C   0  0  0  0  0  0  0  0  0  0  0  0
    2.5643   -0.9069    0.8196 N   0  0  0  0  0  0  0  0  0  0  0  0
    1.2905   -0.5699    1.1352 C   0  0  0  0  0  0  0  0  0  0  0  0
  1  2  1  0
  2  3  1  0
  3  4  1  0
  4  5  1  0
  5  6  1  0
  6  7  1  6
  7  8  2  0
  8  9  1  0
  9 10  2  0
 10 11  1  0
 11 12  2  0
  6  2  1  0
 12  7  1  0
M  END
>  <zinc_id>  (73) 
ZINC000000391812

>  <smiles>  (73) 
CN1CCC[C@H]1c1cccnc1

$$$$

     RDKit          3D

  8  8  0  0  0  0  0  0  0  0999 V2000
    2.5261   -0.1780    0.8340 O   0  0  0  0  0  0  0  0  0  0  0  0
    2.0584    0.1751   -0.4409 C   0  0  0  0  0  0  0  0  0  0  0  0
    0.5631    0.1209   -0.4047 C   0  0  0  0  0  0  0  0  0  0  0  0
   -0.0457   -1.1280   -0.4259 C   0  0  0  0  0  0  0  0  0  0  0  0
   -1.4029   -1.2086   -0.1424 C   0  0  0  0  0  0  0  0  0  0  0  0
   -1.9468   -0.1477    0.5720 C   0  0  0  0  0  0  0  0  0  0  0  0
   -1.5532    1.1145    0.1436 C   0  0  0  0  0  0  0  0  0  0  0  0
   -0.1991    1.2519   -0.1357 C   0  0  0  0  0  0  0  0  0  0  0  0
  1  2  1  0
  2  3  1  0
  3  4  2  0
  4  5  1  0
  5  6  2  0
  6  7  1  0
  7  8  2  0
  8  3  1  0
M  END
>  <zinc_id>  (74) 
ZINC000000895302

>  <smiles>  (74) 
OCc1ccccc1

$$$$

     RDKit          3D

 17 18  0  0  0  0  0  0  0  0999 V2000
    2.6048    1.6186   -1.4236 C   0  0  0  0  0  0  0  0  0  0  0  0
    3.1210    1.3464    0.1122 C   0  0  1  0  0  0  0  0  0  0  0  0
    1.7824    1.6238    0.7360 O   0  0  0  0  0  0  0  0  0  0  0  0
    2.9824   -0.3546   -0.0605 C   0  0  1  0  0  0  0  0  0  0  0  0
    3.4777   -0.5199    1.3500 O   0  0  0  0  0  0  0  0  0  0  0  0
    1.3799   -0.5618    0.4658 C   0  0  2  0  0  0  0  0  0  0  0  0
    1.2725   -2.0177   -0.2574 C   0  0  0  0  0  0  0  0  0  0  0  0
   -0.1407   -2.2201   -0.5648 N   0  0  0  0  0  0  0  0  0  0  0  0
   -1.1277   -1.2189   -0.6121 C   0  0  0  0  0  0  0  0  0  0  0  0
   -2.4386   -1.3507   -0.4326 N   0  0  0  0  0  0  0  0  0  0  0  0
   -3.2207   -0.3057   -0.0549 C   0  0  0  0  0  0  0  0  0  0  0  0
   -4.3188   -0.6565    0.7992 N   0  0  0  0  0  0  0  0  0  0  0  0
   -2.8261    0.9824   -0.2155 N   0  0  0  0  0  0  0  0  0  0  0  0
   -1.5504    1.1375   -0.6659 C   0  0  0  0  0  0  0  0  0  0  0  0
   -1.0658    2.2741   -0.9352 O   0  0  0  0  0  0  0  0  0  0  0  0
   -0.6665    0.0946   -0.6251 C   0  0  0  0  0  0  0  0  0  0  0  0
    0.7346    0.1285   -0.7855 N   0  0  0  0  0  0  0  0  0  0  0  0
  2  1  1  6
  2  3  1  0
  2  4  1  0
  4  5  1  1
  4  6  1  0
  6  7  1  6
  7  8  1  0
  8  9  1  0
  9 10  1  0
 10 11  1  0
 11 12  1  0
 11 13  2  0
 13 14  1  0
 14 15  2  0
 14 16  1  0
 16 17  1  0
 17  6  1  0
 16  9  2  0
M  END
>  <zinc_id>  (75) 
ZINC000004228258

>  <smiles>  (75) 
C[C@@H](O)[C@@H](O)[C@@H]1CNc2[nH]c(N)nc(=O)c2N1

$$$$

     RDKit          3D

  8  8  0  0  0  0  0  0  0  0999 V2000
   -2.5703   -0.0265    0.6884 O   0  0  0  0  0  0  0  0  0  0  0  0
   -1.4130    0.0130   -0.0956 C   0  0  0  0  0  0  0  0  0  0  0  0
   -0.7053   -1.1545   -0.3537 C   0  0  0  0  0  0  0  0  0  0  0  0
    0.6848   -1.1569   -0.3331 C   0  0  0  0  0  0  0  0  0  0  0  0
    1.4091    0.0032   -0.1184 C   0  0  0  0  0  0  0  0  0  0  0  0
    2.5849   -0.0575    0.6364 O   0  0  0  0  0  0  0  0  0  0  0  0
    0.6973    1.1874   -0.2074 C   0  0  0  0  0  0  0  0  0  0  0  0
   -0.6875    1.1918   -0.2167 C   0  0  0  0  0  0  0  0  0  0  0  0
  1  2  1  0
  2  3  2  0
  3  4  1  0
  4  5  2  0
  5  6  1  0
  5  7  1  0
  7  8  2  0
  8  2  1  0
M  END
>  <zinc_id>  (76) 
ZINC000005133378

>  <smiles>  (76) 
Oc1ccc(O)cc1

$$$$

     RDKit          3D

 11 11  0  0  0  0  0  0  0  0999 V2000
    3.4720   -0.7268   -0.6856 N   0  0  0  0  0  0  0  0  0  0  0  0
    3.0146    0.6478   -0.4947 C   0  0  0  0  0  0  0  0  0  0  0  0
    2.1577    0.6634    0.7650 C   0  0  0  0  0  0  0  0  0  0  0  0
    0.7846    0.2034    0.4084 C   0  0  0  0  0  0  0  0  0  0  0  0
    0.2615   -0.8835    1.0974 C   0  0  0  0  0  0  0  0  0  0  0  0
   -0.9520   -1.4367    0.7179 C   0  0  0  0  0  0  0  0  0  0  0  0
   -1.7308   -0.6690   -0.1347 C   0  0  0  0  0  0  0  0  0  0  0  0
   -2.8790   -1.1740   -0.7503 O   0  0  0  0  0  0  0  0  0  0  0  0
   -1.4672    0.6810   -0.3364 C   0  0  0  0  0  0  0  0  0  0  0  0
   -2.5049    1.6096   -0.4746 O   0  0  0  0  0  0  0  0  0  0  0  0
   -0.1565    1.0848   -0.1123 C   0  0  0  0  0  0  0  0  0  0  0  0
  1  2  1  0
  2  3  1  0
  3  4  1  0
  4  5  2  0
  5  6  1  0
  6  7  2  0
  7  8  1  0
  7  9  1  0
  9 10  1  0
  9 11  2  0
 11  4  1  0
M  END
>  <zinc_id>  (77) 
ZINC000000033882

>  <smiles>  (77) 
NCCc1ccc(O)c(O)c1

$$$$

     RDKit          3D

 13 13  0  0  0  0  0  0  0  0999 V2000
   -3.1269   -1.8594    1.4518 C   0  0  0  0  0  0  0  0  0  0  0  0
   -2.9609   -0.7960    0.7339 N   0  0  0  0  0  0  0  0  0  0  0  0
   -2.0206   -0.7577   -0.3302 C   0  0  0  0  0  0  0  0  0  0  0  0
   -1.6524    0.8622   -0.4530 C   0  0  2  0  0  0  0  0  0  0  0  0
   -2.1263    0.9316   -1.8999 O   0  0  0  0  0  0  0  0  0  0  0  0
   -0.0939    0.6847   -0.8890 C   0  0  0  0  0  0  0  0  0  0  0  0
    0.7228    1.7643   -0.5519 C   0  0  0  0  0  0  0  0  0  0  0  0
    1.6946    1.6357    0.4474 C   0  0  0  0  0  0  0  0  0  0  0  0
    2.2281    0.4053    0.7050 C   0  0  0  0  0  0  0  0  0  0  0  0
    2.4912   -0.0748    1.9973 O   0  0  0  0  0  0  0  0  0  0  0  0
    1.7578   -0.5904   -0.1514 C   0  0  0  0  0  0  0  0  0  0  0  0
    2.5975   -1.6866   -0.3375 O   0  0  0  0  0  0  0  0  0  0  0  0
    0.4892   -0.5190   -0.7225 C   0  0  0  0  0  0  0  0  0  0  0  0
  1  2  1  0
  2  3  1  0
  4  3  1  6
  4  5  1  0
  4  6  1  0
  6  7  2  0
  7  8  1  0
  8  9  2  0
  9 10  1  0
  9 11  1  0
 11 12  1  0
 11 13  2  0
 13  6  1  0
M  END
>  <zinc_id>  (78) 
ZINC000000039089

>  <smiles>  (78) 
CNC[C@H](O)c1ccc(O)c(O)c1

$$$$

     RDKit          3D

  9  9  0  0  0  0  0  0  0  0999 V2000
    2.0625    1.4487   -0.0643 N   0  0  0  0  0  0  0  0  0  0  0  0
    1.7102    0.0673    0.0596 C   0  0  0  0  0  0  0  0  0  0  0  0
    2.6077   -0.8120   -0.0835 O   0  0  0  0  0  0  0  0  0  0  0  0
    0.2941   -0.3051    0.1112 C   0  0  0  0  0  0  0  0  0  0  0  0
   -0.4250    0.1320    1.2098 C   0  0  0  0  0  0  0  0  0  0  0  0
   -1.7893    0.3596    1.0724 C   0  0  0  0  0  0  0  0  0  0  0  0
   -2.4113   -0.2029   -0.0361 C   0  0  0  0  0  0  0  0  0  0  0  0
   -1.6822   -0.1858   -1.1787 N   0  0  0  0  0  0  0  0  0  0  0  0
   -0.3668   -0.5018   -1.0903 C   0  0  0  0  0  0  0  0  0  0  0  0
  1  2  1  0
  2  3  2  0
  2  4  1  0
  4  5  2  0
  5  6  1  0
  6  7  2  0
  7  8  1  0
  8  9  2  0
  9  4  1  0
M  END
>  <zinc_id>  (79) 
ZINC000000005878

>  <smiles>  (79) 
NC(=O)c1cccnc1

$$$$

     RDKit          3D

 11 11  0  0  0  0  0  0  0  0999 V2000
    0.9644   -0.0600   -1.0176 N   0  0  0  0  0  0  0  0  0  0  0  0
    1.3029    0.7691    0.2796 C   0  0  1  0  0  0  0  0  0  0  0  0
    0.1672   -0.0176    1.1668 C   0  0  0  0  0  0  0  0  0  0  0  0
   -1.1185    0.2262    0.5006 C   0  0  0  0  0  0  0  0  0  0  0  0
   -1.4802    0.8770   -0.6405 C   0  0  0  0  0  0  0  0  0  0  0  0
   -2.7501    0.4879   -0.9129 N   0  0  0  0  0  0  0  0  0  0  0  0
   -3.1435   -0.4201    0.0134 C   0  0  0  0  0  0  0  0  0  0  0  0
   -2.2598   -0.2538    1.0236 N   0  0  0  0  0  0  0  0  0  0  0  0
    2.4711   -0.2503    0.7204 C   0  0  0  0  0  0  0  0  0  0  0  0
    3.6292    0.2315    0.5375 O   0  0  0  0  0  0  0  0  0  0  0  0
    2.2173   -1.5901    0.6980 O   0  0  0  0  0  0  0  0  0  0  0  0
  2  1  1  6
  2  3  1  0
  3  4  1  0
  4  5  2  0
  5  6  1  0
  6  7  1  0
  7  8  2  0
  2  9  1  0
  9 10  2  0
  9 11  1  0
  8  4  1  0
M  END
>  <zinc_id>  (80) 
ZINC000006661227

>  <smiles>  (80) 
N[C@@H](Cc1c[nH]cn1)C(=O)O

$$$$

     RDKit          3D

 10 12  0  0  0  0  0  0  0  0999 V2000
   -1.3128   -1.0323    0.2964 C   0  0  0  0  0  0  0  0  0  0  0  0
   -0.5432   -0.9244   -0.9228 N   0  0  0  0  0  0  0  0  0  0  0  0
    0.8367   -1.2760   -0.6628 C   0  0  0  0  0  0  0  0  0  0  0  0
    1.3854   -0.2951    0.2509 N   0  0  0  0  0  0  0  0  0  0  0  0
    0.6595   -0.3475    1.5015 C   0  0  0  0  0  0  0  0  0  0  0  0
   -0.7384   -0.1035    1.2357 N   0  0  0  0  0  0  0  0  0  0  0  0
   -0.8197    1.2544    0.7022 C   0  0  0  0  0  0  0  0  0  0  0  0
   -0.0825    1.3339   -0.5258 N   0  0  0  0  0  0  0  0  0  0  0  0
   -0.6885    0.4031   -1.4726 C   0  0  0  0  0  0  0  0  0  0  0  0
    1.3035    0.9874   -0.4027 C   0  0  0  0  0  0  0  0  0  0  0  0
  1  2  1  0
  2  3  1  0
  3  4  1  0
  4  5  1  0
  5  6  1  0
  6  7  1  0
  7  8  1  0
  8  9  1  0
  8 10  1  0
  6  1  1  0
  9  2  1  0
 10  4  1  0
M  END
>  <zinc_id>  (81) 
ZINC000086040406

>  <smiles>  (81) 
C1N2CN3CN1CN(C2)C3

$$$$

     RDKit          3D

 21 23  0  0  0  0  0  0  0  0999 V2000
    4.0639    1.6926    0.8843 C   0  0  0  0  0  0  0  0  0  0  0  0
    3.6284    1.0380    0.7356 N   0  0  0  0  0  0  0  0  0  0  0  0
    3.9865   -0.3930    1.1775 C   0  0  2  0  0  0  0  0  0  0  0  0
    4.9684   -0.6199   -0.1234 C   0  0  0  0  0  0  0  0  0  0  0  0
    3.8236   -0.5750   -1.0798 C   0  0  0  0  0  0  0  0  0  0  0  0
    3.5396    1.0130   -0.8094 C   0  0  1  0  0  0  0  0  0  0  0  0
    1.9271    0.8550   -0.7620 C   0  0  0  0  0  0  0  0  0  0  0  0
    1.5121    0.0180    0.5848 C   0  0  1  0  0  0  0  0  0  0  0  0
    0.5724   -0.8237   -0.3006 O   0  0  0  0  0  0  0  0  0  0  0  0
   -0.7169   -0.6808    0.2676 C   0  0  0  0  0  0  0  0  0  0  0  0
   -0.7914   -1.6673    0.9187 O   0  0  0  0  0  0  0  0  0  0  0  0
   -1.6151   -0.2581   -0.9923 C   0  0  1  0  0  0  0  0  0  0  0  0
   -1.7957   -1.8028   -1.4860 C   0  0  0  0  0  0  0  0  0  0  0  0
   -2.5183   -2.4987   -0.6033 O   0  0  0  0  0  0  0  0  0  0  0  0
   -3.0305   -0.1600   -0.2128 C   0  0  0  0  0  0  0  0  0  0  0  0
   -2.9856    0.5423    0.9870 C   0  0  0  0  0  0  0  0  0  0  0  0
   -4.0160    1.3687    1.3800 C   0  0  0  0  0  0  0  0  0  0  0  0
   -4.6191    2.1341    0.3835 C   0  0  0  0  0  0  0  0  0  0  0  0
   -4.6120    1.5868   -0.8856 C   0  0  0  0  0  0  0  0  0  0  0  0
   -3.9969    0.3564   -1.1070 C   0  0  0  0  0  0  0  0  0  0  0  0
    2.6758   -1.1257    0.5160 C   0  0  0  0  0  0  0  0  0  0  0  0
  1  2  1  0
  2  3  1  0
  3  4  1  6
  4  5  1  0
  6  5  1  1
  6  7  1  0
  7  8  1  0
  8  9  1  6
  9 10  1  0
 10 11  2  0
 12 10  1  1
 12 13  1  0
 13 14  1  0
 12 15  1  0
 15 16  2  0
 16 17  1  0
 17 18  2  0
 18 19  1  0
 19 20  2  0
  8 21  1  0
  6  2  1  0
 20 15  1  0
 21  3  1  0
M  END
>  <zinc_id>  (82) 
ZINC000100009278

>  <smiles>  (82) 
CN1[C@H]2CC[C@@H]1C[C@H](OC(=O)[C@@H](CO)c1ccccc1)C2

$$$$

     RDKit          3D

 21 23  0  0  0  0  0  0  0  0999 V2000
   -4.8104   -0.5145   -0.0214 C   0  0  0  0  0  0  0  0  0  0  0  0
   -4.0232   -0.4529    0.2351 N   0  0  0  0  0  0  0  0  0  0  0  0
   -3.8193    0.7286    1.2659 C   0  0  2  0  0  0  0  0  0  0  0  0
   -4.4805    1.5739    0.0071 C   0  0  0  0  0  0  0  0  0  0  0  0
   -3.1216    1.4275   -0.7273 C   0  0  0  0  0  0  0  0  0  0  0  0
   -2.8203   -0.1942   -0.7280 C   0  0  1  0  0  0  0  0  0  0  0  0
   -2.0435   -0.6533    0.6381 C   0  0  0  0  0  0  0  0  0  0  0  0
   -1.2002    0.5478    1.2847 C   0  0  1  0  0  0  0  0  0  0  0  0
   -0.3355    0.6411   -0.0199 O   0  0  0  0  0  0  0  0  0  0  0  0
    0.3857   -0.5828    0.0538 C   0  0  0  0  0  0  0  0  0  0  0  0
    0.7323   -0.9504    1.1882 O   0  0  0  0  0  0  0  0  0  0  0  0
    1.4344   -0.8876   -1.1317 C   0  0  2  0  0  0  0  0  0  0  0  0
    1.6736   -2.4566   -0.6947 C   0  0  0  0  0  0  0  0  0  0  0  0
    2.1833   -2.5305    0.5342 O   0  0  0  0  0  0  0  0  0  0  0  0
    2.6716   -0.2895   -0.2919 C   0  0  0  0  0  0  0  0  0  0  0  0
    3.8621   -0.8894   -0.3915 C   0  0  0  0  0  0  0  0  0  0  0  0
    4.9489   -0.1603    0.0675 C   0  0  0  0  0  0  0  0  0  0  0  0
    4.9150    1.2046   -0.0982 C   0  0  0  0  0  0  0  0  0  0  0  0
    3.6958    1.8568   -0.2226 C   0  0  0  0  0  0  0  0  0  0  0  0
    2.5669    1.0754   -0.2538 C   0  0  0  0  0  0  0  0  0  0  0  0
   -2.4152    1.5062    0.8908 C   0  0  0  0  0  0  0  0  0  0  0  0
  1  2  1  0
  2  3  1  0
  3  4  1  6
  4  5  1  0
  6  5  1  1
  6  7  1  0
  7  8  1  0
  8  9  1  6
  9 10  1  0
 10 11  2  0
 12 10  1  1
 12 13  1  0
 13 14  1  0
 12 15  1  0
 15 16  2  0
 16 17  1  0
 17 18  2  0
 18 19  1  0
 19 20  2  0
  8 21  1  0
  6  2  1  0
 20 15  1  0
 21  3  1  0
M  END
>  <zinc_id>  (83) 
ZINC000100009280

>  <smiles>  (83) 
CN1[C@H]2CC[C@@H]1C[C@H](OC(=O)[C@H](CO)c1ccccc1)C2

$$$$

     RDKit          3D

 25 27  0  0  0  0  0  0  0  0999 V2000
   -4.3730    1.1927    1.6653 C   0  0  0  0  0  0  0  0  0  0  0  0
   -3.8562    0.3021    1.2028 C   0  0  0  0  0  0  0  0  0  0  0  0
   -4.5763   -0.9489    1.5280 C   0  0  0  0  0  0  0  0  0  0  0  0
   -2.1322    0.2715    1.4188 S   0  0  0  0  0  0  0  0  0  0  0  0
   -1.8466   -0.2061   -0.4196 C   0  0  2  0  0  0  0  0  0  0  0  0
   -0.5933    0.8671   -0.8432 C   0  0  2  0  0  0  0  0  0  0  0  0
    0.2089    0.6582    0.5358 N   0  0  0  0  0  0  0  0  0  0  0  0
    0.9824   -0.4771    0.3034 C   0  0  0  0  0  0  0  0  0  0  0  0
    0.5800   -1.5173   -0.3019 O   0  0  0  0  0  0  0  0  0  0  0  0
    1.8516   -1.0626    1.5753 C   0  0  2  0  0  0  0  0  0  0  0  0
    2.1265    0.3963    2.2119 N   0  0  0  0  0  0  0  0  0  0  0  0
    3.2559   -1.0265    0.7093 C   0  0  0  0  0  0  0  0  0  0  0  0
    4.3148   -1.5913    1.3682 C   0  0  0  0  0  0  0  0  0  0  0  0
    5.5928   -1.1501    1.0410 C   0  0  0  0  0  0  0  0  0  0  0  0
    5.7539   -0.0158    0.2533 C   0  0  0  0  0  0  0  0  0  0  0  0
    6.9126    0.7567    0.2823 O   0  0  0  0  0  0  0  0  0  0  0  0
    4.7037    0.2415   -0.6214 C   0  0  0  0  0  0  0  0  0  0  0  0
    3.4536    0.1041   -0.0232 C   0  0  0  0  0  0  0  0  0  0  0  0
   -1.6251    1.9680   -0.2208 C   0  0  0  0  0  0  0  0  0  0  0  0
   -1.3699    3.1660   -0.4214 O   0  0  0  0  0  0  0  0  0  0  0  0
   -2.6330    1.0579   -0.7330 N   0  0  0  0  0  0  0  0  0  0  0  0
   -4.1324    0.5950   -0.4249 C   0  0  1  0  0  0  0  0  0  0  0  0
   -3.9082   -0.9795   -0.8887 C   0  0  0  0  0  0  0  0  0  0  0  0
   -3.5174   -1.0115   -2.1038 O   0  0  0  0  0  0  0  0  0  0  0  0
   -5.1732   -1.5905   -0.8092 O   0  0  0  0  0  0  0  0  0  0  0  0
  1  2  1  0
  2  3  1  0
  2  4  1  0
  5  4  1  1
  5  6  1  0
  6  7  1  1
  7  8  1  0
  8  9  2  0
 10  8  1  6
 10 11  1  0
 10 12  1  0
 12 13  2  0
 13 14  1  0
 14 15  2  0
 15 16  1  0
 15 17  1  0
 17 18  2  0
  6 19  1  0
 19 20  2  0
 19 21  1  0
 21 22  1  0
 22 23  1  6
 23 24  2  0
 23 25  1  0
 22  2  1  0
 21  5  1  0
 18 12  1  0
M  END
>  <zinc_id>  (84) 
ZINC000003830215

>  <smiles>  (84) 
CC1(C)S[C@@H]2[C@H](NC(=O)[C@H](N)c3ccc(O)cc3)C(=O)N2[C@H]1C(=O)O

$$$$

     RDKit          3D

  7  7  0  0  0  0  0  0  0  0999 V2000
    2.3476   -0.0266    0.2522 O   0  0  0  0  0  0  0  0  0  0  0  0
    1.0040   -0.0095   -0.1198 C   0  0  0  0  0  0  0  0  0  0  0  0
    0.2881    1.1830   -0.0870 C   0  0  0  0  0  0  0  0  0  0  0  0
   -1.1022    1.1714   -0.1362 C   0  0  0  0  0  0  0  0  0  0  0  0
   -1.7229    0.0178    0.3274 C   0  0  0  0  0  0  0  0  0  0  0  0
   -1.0944   -1.1691   -0.0281 C   0  0  0  0  0  0  0  0  0  0  0  0
    0.2797   -1.1671   -0.2085 C   0  0  0  0  0  0  0  0  0  0  0  0
  1  2  1  0
  2  3  2  0
  3  4  1  0
  4  5  2  0
  5  6  1  0
  6  7  2  0
  7  2  1  0
M  END
>  <zinc_id>  (85) 
ZINC000005133329

>  <smiles>  (85) 
Oc1ccccc1

$$$$

     RDKit          3D

  7  6  0  0  0  0  0  0  0  0999 V2000
   -0.4708   -0.5227    1.2974 C   0  0  0  0  0  0  0  0  0  0  0  0
   -0.7692   -0.0736   -0.0461 N   0  0  0  0  0  0  0  0  0  0  0  0
   -1.6904    1.0516    0.0647 C   0  0  0  0  0  0  0  0  0  0  0  0
   -1.4139   -1.1431   -0.7999 C   0  0  0  0  0  0  0  0  0  0  0  0
    0.3879    0.3670   -0.7700 C   0  0  0  0  0  0  0  0  0  0  0  0
    1.5631    0.7098    0.0890 C   0  0  0  0  0  0  0  0  0  0  0  0
    2.3933   -0.3891    0.1649 O   0  0  0  0  0  0  0  0  0  0  0  0
  1  2  1  0
  2  3  1  0
  2  4  1  0
  2  5  1  0
  5  6  1  0
  6  7  1  0
M  CHG  1   2   1
M  END
>  <zinc_id>  (86) 
ZINC000003079337

>  <smiles>  (86) 
C[N+](C)(C)CCO

$$$$

     RDKit          3D

  9  8  0  0  0  0  0  0  0  0999 V2000
    2.9649    0.4125   -0.6850 C   0  0  0  0  0  0  0  0  0  0  0  0
    1.9347   -0.6441   -0.5080 C   0  0  0  0  0  0  0  0  0  0  0  0
    0.8471   -0.1318    0.5787 C   0  0  2  0  0  0  0  0  0  0  0  0
    0.1715   -1.6040    0.6662 C   0  0  0  0  0  0  0  0  0  0  0  0
   -0.1908    0.4337   -0.6595 C   0  0  2  0  0  0  0  0  0  0  0  0
   -0.2040    1.8922   -0.0653 N   0  0  0  0  0  0  0  0  0  0  0  0
   -1.5442    0.0388    0.1118 C   0  0  0  0  0  0  0  0  0  0  0  0
   -1.6417    0.2603    1.3025 O   0  0  0  0  0  0  0  0  0  0  0  0
   -2.3376   -0.6575   -0.7414 O   0  0  0  0  0  0  0  0  0  0  0  0
  1  2  1  0
  3  2  1  6
  3  4  1  0
  3  5  1  0
  5  6  1  1
  5  7  1  0
  7  8  2  0
  7  9  1  0
M  END
>  <zinc_id>  (87) 
ZINC000003581355

>  <smiles>  (87) 
CC[C@H](C)[C@H](N)C(=O)O

$$$$

     RDKit          3D

  9  8  0  0  0  0  0  0  0  0999 V2000
    2.6223   -0.8103   -1.2176 C   0  0  0  0  0  0  0  0  0  0  0  0
    1.8989   -0.2532   -0.0574 C   0  0  0  0  0  0  0  0  0  0  0  0
    1.8500    1.2575   -0.2945 C   0  0  0  0  0  0  0  0  0  0  0  0
    0.4631   -0.7500   -0.0202 C   0  0  0  0  0  0  0  0  0  0  0  0
   -0.3347    0.4869    0.7844 C   0  0  2  0  0  0  0  0  0  0  0  0
   -0.7800   -0.5060    1.9648 N   0  0  0  0  0  0  0  0  0  0  0  0
   -1.7385    0.2419   -0.0324 C   0  0  0  0  0  0  0  0  0  0  0  0
   -2.0602   -0.9359   -0.1848 O   0  0  0  0  0  0  0  0  0  0  0  0
   -1.9210    1.2692   -0.9422 O   0  0  0  0  0  0  0  0  0  0  0  0
  1  2  1  0
  2  3  1  0
  2  4  1  0
  5  4  1  6
  5  6  1  0
  5  7  1  0
  7  8  2  0
  7  9  1  0
M  END
>  <zinc_id>  (88) 
ZINC000003645145

>  <smiles>  (88) 
CC(C)C[C@H](N)C(=O)O

$$$$

     RDKit          3D

 16 17  0  0  0  0  0  0  0  0999 V2000
    3.6207    1.5669    0.9958 O   0  0  0  0  0  0  0  0  0  0  0  0
    3.8714    0.6947    0.8778 C   0  0  0  0  0  0  0  0  0  0  0  0
    4.0612   -0.0905    2.0203 O   0  0  0  0  0  0  0  0  0  0  0  0
    3.5047    0.0220   -0.4045 C   0  0  0  0  0  0  0  0  0  0  0  0
    2.0505   -0.3613   -0.3884 C   0  0  0  0  0  0  0  0  0  0  0  0
    1.2201    0.4975    0.5332 C   0  0  0  0  0  0  0  0  0  0  0  0
   -0.1088    0.6712   -0.0640 C   0  0  0  0  0  0  0  0  0  0  0  0
   -1.2009    0.4642    1.0812 C   0  0  2  0  0  0  0  0  0  0  0  0
   -1.1795   -1.4160    1.0516 S   0  0  0  0  0  0  0  0  0  0  0  0
   -2.8585   -1.3853    1.2558 C   0  0  0  0  0  0  0  0  0  0  0  0
   -3.1710   -0.6825   -0.2016 C   0  0  2  0  0  0  0  0  0  0  0  0
   -1.8149   -1.0018   -0.9569 N   0  0  0  0  0  0  0  0  0  0  0  0
   -1.9923   -0.0664   -1.8331 C   0  0  0  0  0  0  0  0  0  0  0  0
   -1.3906   -0.1800   -3.0935 O   0  0  0  0  0  0  0  0  0  0  0  0
   -1.9949    1.1406   -1.1514 N   0  0  0  0  0  0  0  0  0  0  0  0
   -2.6171    0.8754    0.2778 C   0  0  2  0  0  0  0  0  0  0  0  0
  1  2  2  0
  2  3  1  0
  2  4  1  0
  4  5  1  0
  5  6  1  0
  6  7  1  0
  8  7  1  6
  8  9  1  0
  9 10  1  0
 11 10  1  1
 11 12  1  0
 12 13  2  0
 13 14  1  0
 13 15  1  0
 16 15  1  6
 16  8  1  0
 16 11  1  0
M  END
>  <zinc_id>  (89) 
ZINC000035024346

>  <smiles>  (89) 
O=C(O)CCCC[C@@H]1SC[C@@H]2N=C(O)N[C@H]12

$$$$

     RDKit          3D

 11 11  0  0  0  0  0  0  0  0999 V2000
    3.1359   -1.2311   -0.5812 C   0  0  0  0  0  0  0  0  0  0  0  0
    2.0273   -1.0450    0.2562 O   0  0  0  0  0  0  0  0  0  0  0  0
    1.3746    0.1814    0.4016 C   0  0  0  0  0  0  0  0  0  0  0  0
    2.0440    1.2128    0.2139 O   0  0  0  0  0  0  0  0  0  0  0  0
   -0.0908    0.2142    0.5030 C   0  0  0  0  0  0  0  0  0  0  0  0
   -0.7958   -0.7726    1.1818 C   0  0  0  0  0  0  0  0  0  0  0  0
   -2.0799   -1.1412    0.7980 C   0  0  0  0  0  0  0  0  0  0  0  0
   -2.4874   -0.8313   -0.4945 C   0  0  0  0  0  0  0  0  0  0  0  0
   -1.9816    0.3625   -0.9973 C   0  0  0  0  0  0  0  0  0  0  0  0
   -0.8429    0.9191   -0.4291 C   0  0  0  0  0  0  0  0  0  0  0  0
   -0.3034    2.1315   -0.8526 O   0  0  0  0  0  0  0  0  0  0  0  0
  1  2  1  0
  2  3  1  0
  3  4  2  0
  3  5  1  0
  5  6  2  0
  6  7  1  0
  7  8  2  0
  8  9  1  0
  9 10  2  0
 10 11  1  0
 10  5  1  0
M  END
>  <zinc_id>  (90) 
ZINC000000000490

>  <smiles>  (90) 
COC(=O)c1ccccc1O

$$$$

     RDKit          3D

 10 10  0  0  0  0  0  0  0  0999 V2000
    3.3615   -0.5842   -0.6515 C   0  0  0  0  0  0  0  0  0  0  0  0
    2.1059    0.0693   -0.8234 O   0  0  0  0  0  0  0  0  0  0  0  0
    1.3301    0.1942    0.3310 C   0  0  0  0  0  0  0  0  0  0  0  0
    1.8887    0.7250    1.3176 O   0  0  0  0  0  0  0  0  0  0  0  0
   -0.1338    0.0863    0.2861 C   0  0  0  0  0  0  0  0  0  0  0  0
   -0.8470    1.1711   -0.1864 C   0  0  0  0  0  0  0  0  0  0  0  0
   -2.2167    1.0114   -0.3584 C   0  0  0  0  0  0  0  0  0  0  0  0
   -2.7111   -0.2820   -0.4785 C   0  0  0  0  0  0  0  0  0  0  0  0
   -2.0663   -1.2136    0.2666 N   0  0  0  0  0  0  0  0  0  0  0  0
   -0.7113   -1.1776    0.2970 C   0  0  0  0  0  0  0  0  0  0  0  0
  1  2  1  0
  2  3  1  0
  3  4  2  0
  3  5  1  0
  5  6  2  0
  6  7  1  0
  7  8  2  0
  8  9  1  0
  9 10  2  0
 10  5  1  0
M  END
>  <zinc_id>  (91) 
ZINC000000001706

>  <smiles>  (91) 
COC(=O)c1cccnc1

$$$$

     RDKit          3D

  8  8  0  0  0  0  0  0  0  0999 V2000
   -2.3148   -0.9321    0.4755 O   0  0  0  0  0  0  0  0  0  0  0  0
   -1.2112   -0.3575   -0.1653 C   0  0  0  0  0  0  0  0  0  0  0  0
   -1.1618    1.0280   -0.1260 C   0  0  0  0  0  0  0  0  0  0  0  0
    0.0185    1.6540   -0.5035 C   0  0  0  0  0  0  0  0  0  0  0  0
    1.1529    0.8764   -0.6987 C   0  0  0  0  0  0  0  0  0  0  0  0
    1.1838   -0.3558   -0.0724 C   0  0  0  0  0  0  0  0  0  0  0  0
    2.3407   -0.8607    0.5307 O   0  0  0  0  0  0  0  0  0  0  0  0
   -0.0081   -1.0524   -0.1183 C   0  0  0  0  0  0  0  0  0  0  0  0
  1  2  1  0
  2  3  2  0
  3  4  1  0
  4  5  2  0
  5  6  1  0
  6  7  1  0
  6  8  2  0
  8  2  1  0
M  END
>  <zinc_id>  (92) 
ZINC000000002028

>  <smiles>  (92) 
Oc1cccc(O)c1

$$$$

     RDKit          3D

 16 16  0  0  0  0  0  0  0  0999 V2000
   -2.8556    2.3796    0.7892 C   0  0  0  0  0  0  0  0  0  0  0  0
   -2.6744    1.0844    0.6244 C   0  0  0  0  0  0  0  0  0  0  0  0
   -3.4207    0.1765    1.1058 O   0  0  0  0  0  0  0  0  0  0  0  0
   -1.3702    0.5203    0.3962 N   0  0  0  0  0  0  0  0  0  0  0  0
   -1.3801   -0.4970   -0.8167 C   0  0  1  0  0  0  0  0  0  0  0  0
    0.0984   -1.1010   -0.4074 C   0  0  0  0  0  0  0  0  0  0  0  0
    0.9854    0.0940   -0.2205 C   0  0  0  0  0  0  0  0  0  0  0  0
    1.8811    0.4740   -1.2147 C   0  0  0  0  0  0  0  0  0  0  0  0
    3.2007    0.8048   -0.9311 C   0  0  0  0  0  0  0  0  0  0  0  0
    3.6900    0.6578    0.3598 C   0  0  0  0  0  0  0  0  0  0  0  0
    4.9680    0.1404    0.5913 O   0  0  0  0  0  0  0  0  0  0  0  0
    2.7278    0.7390    1.3549 C   0  0  0  0  0  0  0  0  0  0  0  0
    1.4087    0.4123    1.0657 C   0  0  0  0  0  0  0  0  0  0  0  0
   -2.2212   -1.5972    0.0105 C   0  0  0  0  0  0  0  0  0  0  0  0
   -1.7058   -2.2194    0.9192 O   0  0  0  0  0  0  0  0  0  0  0  0
   -3.3321   -2.0683   -0.6979 O   0  0  0  0  0  0  0  0  0  0  0  0
  1  2  1  0
  2  3  2  0
  2  4  1  0
  5  4  1  1
  5  6  1  0
  6  7  1  0
  7  8  2  0
  8  9  1  0
  9 10  2  0
 10 11  1  0
 10 12  1  0
 12 13  2  0
  5 14  1  0
 14 15  2  0
 14 16  1  0
 13  7  1  0
M  END
>  <zinc_id>  (93) 
ZINC000000156395

>  <smiles>  (93) 
CC(=O)N[C@@H](Cc1ccc(O)cc1)C(=O)O

$$$$

     RDKit          3D

 10  9  0  0  0  0  0  0  0  0999 V2000
   -1.4570   -2.8950   -0.0147 O   0  0  0  0  0  0  0  0  0  0  0  0
   -0.8257   -1.8875   -0.7158 C   0  0  0  0  0  0  0  0  0  0  0  0
    0.1957   -1.2555    0.1980 C   0  0  0  0  0  0  0  0  0  0  0  0
    0.1361    0.1809    0.1246 N   0  0  0  0  0  0  0  0  0  0  0  0
   -1.1771    0.6628   -0.3021 C   0  0  0  0  0  0  0  0  0  0  0  0
   -1.6736    1.5653    0.8134 C   0  0  0  0  0  0  0  0  0  0  0  0
   -1.3913    2.9099    0.5570 O   0  0  0  0  0  0  0  0  0  0  0  0
    1.0902    0.7295   -0.8329 C   0  0  0  0  0  0  0  0  0  0  0  0
    2.4733    0.1851   -0.5790 C   0  0  0  0  0  0  0  0  0  0  0  0
    2.6293   -0.1956    0.7516 O   0  0  0  0  0  0  0  0  0  0  0  0
  1  2  1  0
  2  3  1  0
  3  4  1  0
  4  5  1  0
  5  6  1  0
  6  7  1  0
  4  8  1  0
  8  9  1  0
  9 10  1  0
M  END
>  <zinc_id>  (94) 
ZINC000000896409

>  <smiles>  (94) 
OCCN(CCO)CCO

$$$$

     RDKit          3D

 14 14  0  0  0  0  0  0  0  0999 V2000
    5.1187    0.7406    0.4166 C   0  0  0  0  0  0  0  0  0  0  0  0
    3.6887    0.9888   -0.0004 C   0  0  0  0  0  0  0  0  0  0  0  0
    3.4391    0.1337   -1.2363 C   0  0  0  0  0  0  0  0  0  0  0  0
    2.8392   -1.1799   -0.7459 C   0  0  0  0  0  0  0  0  0  0  0  0
    1.5628   -0.9355    0.0348 C   0  0  0  0  0  0  0  0  0  0  0  0
    0.3806   -1.4468   -0.7706 C   0  0  0  0  0  0  0  0  0  0  0  0
   -0.8817   -0.7607   -0.3632 C   0  0  0  0  0  0  0  0  0  0  0  0
   -1.9347   -1.4438    0.2319 C   0  0  0  0  0  0  0  0  0  0  0  0
   -3.1865   -0.8476    0.2900 C   0  0  0  0  0  0  0  0  0  0  0  0
   -3.3484    0.4813   -0.0818 C   0  0  0  0  0  0  0  0  0  0  0  0
   -4.4827    1.1662    0.3549 O   0  0  0  0  0  0  0  0  0  0  0  0
   -2.2862    1.1221   -0.7023 C   0  0  0  0  0  0  0  0  0  0  0  0
   -1.0090    0.5761   -0.7169 C   0  0  0  0  0  0  0  0  0  0  0  0
    0.1001    1.4056   -0.5190 O   0  0  0  0  0  0  0  0  0  0  0  0
  1  2  1  0
  2  3  1  0
  3  4  1  0
  4  5  1  0
  5  6  1  0
  6  7  1  0
  7  8  2  0
  8  9  1  0
  9 10  2  0
 10 11  1  0
 10 12  1  0
 12 13  2  0
 13 14  1  0
 13  7  1  0
M  END
>  <zinc_id>  (95) 
ZINC000001576892

>  <smiles>  (95) 
CCCCCCc1ccc(O)cc1O

$$$$

     RDKit          3D

 15 15  0  0  0  0  0  0  0  0999 V2000
    5.7510    0.6054   -0.0235 C   0  0  0  0  0  0  0  0  0  0  0  0
    5.0835   -0.7431    0.2115 C   0  0  0  0  0  0  0  0  0  0  0  0
    3.8704   -0.7748   -0.7106 C   0  0  0  0  0  0  0  0  0  0  0  0
    2.6309   -0.3305    0.0200 C   0  0  0  0  0  0  0  0  0  0  0  0
    1.5327   -0.7794   -0.7241 O   0  0  0  0  0  0  0  0  0  0  0  0
    0.9537    0.3067   -1.3977 C   0  0  0  0  0  0  0  0  0  0  0  0
   -0.3336    0.5899   -0.6901 C   0  0  0  0  0  0  0  0  0  0  0  0
   -1.0452    1.6837   -1.1659 C   0  0  0  0  0  0  0  0  0  0  0  0
   -2.2587    1.9354   -0.5472 C   0  0  0  0  0  0  0  0  0  0  0  0
   -2.8483    0.9808    0.2659 C   0  0  0  0  0  0  0  0  0  0  0  0
   -4.0780    1.2167    0.8436 O   0  0  0  0  0  0  0  0  0  0  0  0
   -2.2781   -0.2761    0.4247 C   0  0  0  0  0  0  0  0  0  0  0  0
   -3.1280   -1.3341    0.6695 O   0  0  0  0  0  0  0  0  0  0  0  0
   -2.8776   -2.6697    0.3148 C   0  0  0  0  0  0  0  0  0  0  0  0
   -0.9747   -0.4109    0.0118 C   0  0  0  0  0  0  0  0  0  0  0  0
  1  2  1  0
  2  3  1  0
  3  4  1  0
  4  5  1  0
  5  6  1  0
  6  7  1  0
  7  8  2  0
  8  9  1  0
  9 10  2  0
 10 11  1  0
 10 12  1  0
 12 13  1  0
 13 14  1  0
 12 15  2  0
 15  7  1  0
M  END
>  <zinc_id>  (96) 
ZINC000002561203

>  <smiles>  (96) 
CCCCOCc1ccc(O)c(OC)c1

$$$$

     RDKit          3D

 28 30  0  0  0  0  0  0  0  0999 V2000
   -4.7491    1.8210    2.3631 O   0  0  0  0  0  0  0  0  0  0  0  0
   -5.3335    2.0232    1.8199 C   0  0  0  0  0  0  0  0  0  0  0  0
   -4.7885    1.7403    0.2791 C   0  0  1  0  0  0  0  0  0  0  0  0
   -3.6265    0.8969    0.7587 O   0  0  0  0  0  0  0  0  0  0  0  0
   -2.8360    1.3535   -0.4711 C   0  0  1  0  0  0  0  0  0  0  0  0
   -1.8503    0.1453   -0.4806 O   0  0  0  0  0  0  0  0  0  0  0  0
   -0.5356    0.2912   -0.1044 C   0  0  0  0  0  0  0  0  0  0  0  0
   -0.1876   -0.1450    1.1743 C   0  0  0  0  0  0  0  0  0  0  0  0
    0.7245   -1.1651    1.4234 C   0  0  0  0  0  0  0  0  0  0  0  0
    1.0681   -1.5279    2.7302 O   0  0  0  0  0  0  0  0  0  0  0  0
    1.1799   -1.8948    0.3277 C   0  0  0  0  0  0  0  0  0  0  0  0
    1.2595   -1.2052   -0.8874 C   0  0  0  0  0  0  0  0  0  0  0  0
    2.4998   -1.2545   -1.6945 C   0  0  0  0  0  0  0  0  0  0  0  0
    3.5939   -1.8741   -1.3556 C   0  0  0  0  0  0  0  0  0  0  0  0
    4.8361   -1.2581   -0.8706 C   0  0  0  0  0  0  0  0  0  0  0  0
    4.9313   -0.6798    0.3956 C   0  0  0  0  0  0  0  0  0  0  0  0
    5.6244    0.5246    0.4270 C   0  0  0  0  0  0  0  0  0  0  0  0
    6.6910    0.6311   -0.4563 C   0  0  0  0  0  0  0  0  0  0  0  0
    7.1909    1.8963   -0.6519 O   0  0  0  0  0  0  0  0  0  0  0  0
    7.0570   -0.4984   -1.1733 C   0  0  0  0  0  0  0  0  0  0  0  0
    6.0574   -1.4179   -1.4834 C   0  0  0  0  0  0  0  0  0  0  0  0
    0.4887   -0.0485   -0.9949 C   0  0  0  0  0  0  0  0  0  0  0  0
   -3.7886    0.5680   -1.7077 C   0  0  2  0  0  0  0  0  0  0  0  0
   -4.8474    1.6384   -1.8281 O   0  0  0  0  0  0  0  0  0  0  0  0
   -4.6818   -0.6176   -0.8480 C   0  0  1  0  0  0  0  0  0  0  0  0
   -3.6494   -0.9683    0.2118 O   0  0  0  0  0  0  0  0  0  0  0  0
   -5.7163    0.2976    0.1815 C   0  0  2  0  0  0  0  0  0  0  0  0
   -6.6119    0.7277   -0.9581 O   0  0  0  0  0  0  0  0  0  0  0  0
  1  2  1  0
  3  2  1  1
  3  4  1  0
  4  5  1  0
  5  6  1  1
  6  7  1  0
  7  8  2  0
  8  9  1  0
  9 10  1  0
  9 11  2  0
 11 12  1  0
 12 13  1  0
 13 14  2  0
 14 15  1  0
 15 16  2  0
 16 17  1  0
 17 18  2  0
 18 19  1  0
 18 20  1  0
 20 21  2  0
 12 22  2  0
  5 23  1  0
 23 24  1  1
 23 25  1  0
 25 26  1  1
 25 27  1  0
 27 28  1  6
 27  3  1  0
 22  7  1  0
 21 15  1  0
M  END
>  <zinc_id>  (97) 
ZINC000004098633

>  <smiles>  (97) 
OC[C@H]1O[C@@H](Oc2cc(O)cc(/C=C/c3ccc(O)cc3)c2)[C@H](O)[C@@H](O)[C@@H]1O

$$$$

     RDKit          3D

 24 23  0  0  0  0  0  0  0  0999 V2000
    7.7374   -0.9853    0.9358 C   0  0  0  0  0  0  0  0  0  0  0  0
    7.1200   -0.4060   -0.3185 C   0  0  0  0  0  0  0  0  0  0  0  0
    6.6186   -1.5058   -1.2049 C   0  0  0  0  0  0  0  0  0  0  0  0
    5.6555   -1.1841   -2.0527 C   0  0  0  0  0  0  0  0  0  0  0  0
    5.0904    0.1916   -2.1727 C   0  0  0  0  0  0  0  0  0  0  0  0
    3.7482    0.0578   -2.7838 C   0  0  0  0  0  0  0  0  0  0  0  0
    2.7770    0.8465   -2.3670 C   0  0  0  0  0  0  0  0  0  0  0  0
    2.9364    1.9024   -1.3375 C   0  0  0  0  0  0  0  0  0  0  0  0
    3.5927    1.4162   -0.1040 C   0  0  0  0  0  0  0  0  0  0  0  0
    3.0829    0.3575    0.5105 C   0  0  0  0  0  0  0  0  0  0  0  0
    1.5920    0.2037    0.5554 C   0  0  0  0  0  0  0  0  0  0  0  0
    1.2437   -0.1688    1.9626 C   0  0  0  0  0  0  0  0  0  0  0  0
    0.1919   -0.9880    2.0935 C   0  0  0  0  0  0  0  0  0  0  0  0
   -1.0589   -0.5297    1.4043 C   0  0  0  0  0  0  0  0  0  0  0  0
   -1.9429    0.0051    2.4908 C   0  0  0  0  0  0  0  0  0  0  0  0
   -3.1982   -0.3760    2.6471 C   0  0  0  0  0  0  0  0  0  0  0  0
   -3.9185   -0.8666    1.4483 C   0  0  0  0  0  0  0  0  0  0  0  0
   -3.2601   -0.3661    0.2036 C   0  0  0  0  0  0  0  0  0  0  0  0
   -3.7405    0.7811   -0.2828 C   0  0  0  0  0  0  0  0  0  0  0  0
   -5.2082    0.8701   -0.4489 C   0  0  0  0  0  0  0  0  0  0  0  0
   -5.9584   -0.1841    0.3184 C   0  0  0  0  0  0  0  0  0  0  0  0
   -7.2841   -0.4243   -0.3302 C   0  0  0  0  0  0  0  0  0  0  0  0
   -7.3407   -0.6368   -1.5610 O   0  0  0  0  0  0  0  0  0  0  0  0
   -8.4762   -0.3227    0.3935 O   0  0  0  0  0  0  0  0  0  0  0  0
  1  2  1  0
  2  3  1  0
  3  4  2  0
  4  5  1  0
  5  6  1  0
  6  7  2  0
  7  8  1  0
  8  9  1  0
  9 10  2  0
 10 11  1  0
 11 12  1  0
 12 13  2  0
 13 14  1  0
 14 15  1  0
 15 16  2  0
 16 17  1  0
 17 18  1  0
 18 19  2  0
 19 20  1  0
 20 21  1  0
 21 22  1  0
 22 23  2  0
 22 24  1  0
M  END
>  <zinc_id>  (98) 
ZINC000004474564

>  <smiles>  (98) 
CC/C=C\C/C=C\C/C=C\C/C=C\C/C=C\C/C=C\CCC(=O)O

$$$$

     RDKit          3D

 22 21  0  0  0  0  0  0  0  0999 V2000
    6.9717    3.9773   -0.2904 C   0  0  0  0  0  0  0  0  0  0  0  0
    6.4366    2.6829    0.3010 C   0  0  0  0  0  0  0  0  0  0  0  0
    4.9755    2.9065    0.5417 C   0  0  0  0  0  0  0  0  0  0  0  0
    4.1293    1.8783    0.6693 C   0  0  0  0  0  0  0  0  0  0  0  0
    4.6529    0.4768    0.7708 C   0  0  0  0  0  0  0  0  0  0  0  0
    4.8122   -0.0172   -0.6336 C   0  0  0  0  0  0  0  0  0  0  0  0
    3.6761   -0.2350   -1.3077 C   0  0  0  0  0  0  0  0  0  0  0  0
    2.5436   -0.9097   -0.5998 C   0  0  0  0  0  0  0  0  0  0  0  0
    2.9648   -2.3173   -0.3076 C   0  0  0  0  0  0  0  0  0  0  0  0
    2.0842   -3.0496    0.3864 C   0  0  0  0  0  0  0  0  0  0  0  0
    0.6700   -3.0325   -0.1099 C   0  0  0  0  0  0  0  0  0  0  0  0
    0.2973   -1.6582   -0.5718 C   0  0  0  0  0  0  0  0  0  0  0  0
   -0.8284   -1.1254   -0.0804 C   0  0  0  0  0  0  0  0  0  0  0  0
   -2.0116   -1.9986    0.0196 C   0  0  0  0  0  0  0  0  0  0  0  0
   -2.9814   -1.5603    1.0613 C   0  0  0  0  0  0  0  0  0  0  0  0
   -4.2701   -1.7254    0.7316 C   0  0  0  0  0  0  0  0  0  0  0  0
   -4.6695   -1.0258   -0.5330 C   0  0  0  0  0  0  0  0  0  0  0  0
   -6.1020   -0.5539   -0.3173 C   0  0  0  0  0  0  0  0  0  0  0  0
   -6.0357    0.5369    0.7449 C   0  0  0  0  0  0  0  0  0  0  0  0
   -5.8476    1.8310    0.0547 C   0  0  0  0  0  0  0  0  0  0  0  0
   -6.8441    2.4417   -0.4363 O   0  0  0  0  0  0  0  0  0  0  0  0
   -4.6239    2.4776   -0.0521 O   0  0  0  0  0  0  0  0  0  0  0  0
  1  2  1  0
  2  3  1  0
  3  4  2  0
  4  5  1  0
  5  6  1  0
  6  7  2  0
  7  8  1  0
  8  9  1  0
  9 10  2  0
 10 11  1  0
 11 12  1  0
 12 13  2  0
 13 14  1  0
 14 15  1  0
 15 16  2  0
 16 17  1  0
 17 18  1  0
 18 19  1  0
 19 20  1  0
 20 21  2  0
 20 22  1  0
M  END
>  <zinc_id>  (99) 
ZINC000004474603

>  <smiles>  (99) 
CC/C=C\C/C=C\C/C=C\C/C=C\C/C=C\CCCC(=O)O

$$$$

     RDKit          3D

  4  3  0  0  0  0  0  0  0  0999 V2000
   -0.7401   -1.1954   -0.0181 N   0  0  0  0  0  0  0  0  0  0  0  0
    0.0354   -0.0041    0.0648 C   0  0  0  0  0  0  0  0  0  0  0  0
   -0.5891    1.2681   -0.0184 N   0  0  0  0  0  0  0  0  0  0  0  0
    1.2938   -0.0687   -0.0282 O   0  0  0  0  0  0  0  0  0  0  0  0
  1  2  1  0
  2  3  1  0
  2  4  2  0
M  END
>  <zinc_id>  (100) 
ZINC000008214514

>  <smiles>  (100) 
NC(N)=O

$$$$

     RDKit          3D

 25 25  0  0  0  0  0  0  0  0999 V2000
   -6.6768   -0.1704   -1.9157 C   0  0  0  0  0  0  0  0  0  0  0  0
   -7.2058   -0.6042   -1.1647 C   0  0  0  0  0  0  0  0  0  0  0  0
   -6.6318   -0.1153    0.1616 C   0  0  0  0  0  0  0  0  0  0  0  0
   -5.2383   -0.4169    0.3850 C   0  0  0  0  0  0  0  0  0  0  0  0
   -4.1455    0.0410   -0.4342 C   0  0  0  0  0  0  0  0  0  0  0  0
   -3.5881   -1.1117   -1.4586 C   0  0  2  0  0  0  0  0  0  0  0  0
   -4.0682   -2.2359   -0.5388 O   0  0  0  0  0  0  0  0  0  0  0  0
   -2.0851   -1.3095   -0.9252 C   0  0  0  0  0  0  0  0  0  0  0  0
   -1.8920   -0.9415    0.3146 C   0  0  0  0  0  0  0  0  0  0  0  0
   -1.3507    0.4879   -0.1093 C   0  0  1  0  0  0  0  0  0  0  0  0
   -1.9022    1.1464    1.3498 C   0  0  2  0  0  0  0  0  0  0  0  0
   -2.0954    2.5377    0.7763 O   0  0  0  0  0  0  0  0  0  0  0  0
   -0.4694    1.5450    1.9704 C   0  0  0  0  0  0  0  0  0  0  0  0
    0.4531    1.5908    0.8549 C   0  0  0  0  0  0  0  0  0  0  0  0
    1.6285    1.7032    1.2348 O   0  0  0  0  0  0  0  0  0  0  0  0
    0.1628    0.0663    0.4874 C   0  0  2  0  0  0  0  0  0  0  0  0
    0.9652    0.1978   -0.9206 C   0  0  0  0  0  0  0  0  0  0  0  0
    2.4464    0.1713   -0.5926 C   0  0  0  0  0  0  0  0  0  0  0  0
    2.9618   -1.1253   -0.0678 C   0  0  0  0  0  0  0  0  0  0  0  0
    4.2613   -0.8585    0.6927 C   0  0  0  0  0  0  0  0  0  0  0  0
    5.0406    0.2204   -0.0464 C   0  0  0  0  0  0  0  0  0  0  0  0
    6.2152   -0.3530   -0.8071 C   0  0  0  0  0  0  0  0  0  0  0  0
    7.4746   -0.0127   -0.0860 C   0  0  0  0  0  0  0  0  0  0  0  0
    7.9204    1.1501   -0.1926 O   0  0  0  0  0  0  0  0  0  0  0  0
    7.8196   -0.7549    1.0321 O   0  0  0  0  0  0  0  0  0  0  0  0
  1  2  1  0
  2  3  1  0
  3  4  1  0
  4  5  1  0
  6  5  1  1
  6  7  1  0
  6  8  1  0
  8  9  2  0
 10  9  1  1
 10 11  1  0
 11 12  1  6
 11 13  1  0
 13 14  1  0
 14 15  2  0
 14 16  1  0
 16 17  1  6
 17 18  1  0
 18 19  1  0
 19 20  1  0
 20 21  1  0
 21 22  1  0
 22 23  1  0
 23 24  2  0
 23 25  1  0
 16 10  1  0
M  END
>  <zinc_id>  (101) 
ZINC000012503177

>  <smiles>  (101) 
CCCCC[C@H](O)/C=C\[C@H]1[C@H](O)CC(=O)[C@@H]1CCCCCCC(=O)O

$$$$

     RDKit          3D

 22 24  0  0  0  0  0  0  0  0999 V2000
    4.8216    2.5167    1.0282 C   0  0  0  0  0  0  0  0  0  0  0  0
    4.6402    2.0231   -0.2889 O   0  0  0  0  0  0  0  0  0  0  0  0
    4.0048    0.8267   -0.5764 C   0  0  0  0  0  0  0  0  0  0  0  0
    3.1520    0.6725   -1.6637 C   0  0  0  0  0  0  0  0  0  0  0  0
    2.0250   -0.1227   -1.5481 C   0  0  0  0  0  0  0  0  0  0  0  0
    1.6984   -0.7819   -0.3685 C   0  0  0  0  0  0  0  0  0  0  0  0
    0.3074   -0.8505    0.0985 C   0  0  0  0  0  0  0  0  0  0  0  0
   -0.4530   -2.0057   -0.0346 C   0  0  0  0  0  0  0  0  0  0  0  0
   -1.8117   -1.9318   -0.2969 C   0  0  0  0  0  0  0  0  0  0  0  0
   -2.5151   -2.9271   -0.5909 O   0  0  0  0  0  0  0  0  0  0  0  0
   -2.4475   -0.7154   -0.1943 C   0  0  0  0  0  0  0  0  0  0  0  0
   -3.7999   -0.6911    0.1064 C   0  0  0  0  0  0  0  0  0  0  0  0
   -4.5436   -1.8452    0.3077 O   0  0  0  0  0  0  0  0  0  0  0  0
   -4.4017    0.5192    0.4071 C   0  0  0  0  0  0  0  0  0  0  0  0
   -3.6831    1.6915    0.2635 C   0  0  0  0  0  0  0  0  0  0  0  0
   -4.3541    2.8697   -0.0063 O   0  0  0  0  0  0  0  0  0  0  0  0
   -2.3102    1.5845    0.2799 C   0  0  0  0  0  0  0  0  0  0  0  0
   -1.6413    0.3895    0.0548 C   0  0  0  0  0  0  0  0  0  0  0  0
   -0.3757    0.2390    0.4083 O   0  0  0  0  0  0  0  0  0  0  0  0
    2.7695   -0.9584    0.5007 C   0  0  0  0  0  0  0  0  0  0  0  0
    3.9084   -0.1703    0.3875 C   0  0  0  0  0  0  0  0  0  0  0  0
    5.0097   -0.3322    1.2319 O   0  0  0  0  0  0  0  0  0  0  0  0
  1  2  1  0
  2  3  1  0
  3  4  2  0
  4  5  1  0
  5  6  2  0
  6  7  1  0
  7  8  2  0
  8  9  1  0
  9 10  2  0
  9 11  1  0
 11 12  2  0
 12 13  1  0
 12 14  1  0
 14 15  2  0
 15 16  1  0
 15 17  1  0
 17 18  2  0
 18 19  1  0
  6 20  1  0
 20 21  2  0
 21 22  1  0
 21  3  1  0
 19  7  1  0
 18 11  1  0
M  END
>  <zinc_id>  (102) 
ZINC000005733652

>  <smiles>  (102) 
COc1ccc(-c2cc(=O)c3c(O)cc(O)cc3o2)cc1O

$$$$

     RDKit          3D

 10  9  0  0  0  0  0  0  0  0999 V2000
   -3.6570    0.6750    1.2622 N   0  0  0  0  0  0  0  0  0  0  0  0
   -3.4426    0.5442   -0.1766 C   0  0  0  0  0  0  0  0  0  0  0  0
   -1.9517    0.4981   -0.3777 C   0  0  0  0  0  0  0  0  0  0  0  0
   -1.5590    0.5756   -1.7597 N   0  0  0  0  0  0  0  0  0  0  0  0
   -0.1099    0.5627   -1.7921 C   0  0  0  0  0  0  0  0  0  0  0  0
    0.4273   -0.3528   -0.7350 C   0  0  0  0  0  0  0  0  0  0  0  0
    1.1983    0.3962    0.2453 N   0  0  0  0  0  0  0  0  0  0  0  0
    1.7849   -0.4559    1.2455 C   0  0  0  0  0  0  0  0  0  0  0  0
    3.1912   -0.0428    1.5881 C   0  0  0  0  0  0  0  0  0  0  0  0
    4.1186   -0.3041    0.4998 N   0  0  0  0  0  0  0  0  0  0  0  0
  1  2  1  0
  2  3  1  0
  3  4  1  0
  4  5  1  0
  5  6  1  0
  6  7  1  0
  7  8  1  0
  8  9  1  0
  9 10  1  0
M  END
>  <zinc_id>  (103) 
ZINC000019364225

>  <smiles>  (103) 
NCCNCCNCCN

$$$$

     RDKit          3D

 20 23  0  0  0  0  0  0  0  0999 V2000
   -2.2477   -1.1735   -1.0000 C   0  0  0  0  0  0  0  0  0  0  0  0
   -2.5686   -0.1051   -0.1352 C   0  0  2  0  0  0  0  0  0  0  0  0
   -2.3168    1.2506   -0.6603 C   0  0  0  0  0  0  0  0  0  0  0  0
   -0.9242    1.0727   -1.2765 C   0  0  0  0  0  0  0  0  0  0  0  0
    0.1377    0.9335   -0.0574 C   0  0  2  0  0  0  0  0  0  0  0  0
    1.3217    0.3434   -0.9522 C   0  0  0  0  0  0  0  0  0  0  0  0
    1.9790    1.2651   -1.7588 C   0  0  0  0  0  0  0  0  0  0  0  0
    3.3573    1.4466   -1.7023 C   0  0  0  0  0  0  0  0  0  0  0  0
    4.1041    0.8341   -0.7006 C   0  0  0  0  0  0  0  0  0  0  0  0
    4.9875    1.5620    0.1087 O   0  0  0  0  0  0  0  0  0  0  0  0
    3.5377   -0.3664   -0.2870 C   0  0  0  0  0  0  0  0  0  0  0  0
    2.1587   -0.5699   -0.3083 C   0  0  0  0  0  0  0  0  0  0  0  0
    1.6978   -1.4842    0.7856 C   0  0  0  0  0  0  0  0  0  0  0  0
    0.6399   -0.7151    1.5819 C   0  0  0  0  0  0  0  0  0  0  0  0
   -0.3631   -0.6321    0.3329 C   0  0  1  0  0  0  0  0  0  0  0  0
   -1.6466    0.0628    1.1711 C   0  0  2  0  0  0  0  0  0  0  0  0
   -2.2603   -1.2937    1.8127 C   0  0  0  0  0  0  0  0  0  0  0  0
   -3.4926   -0.4217    2.0994 C   0  0  0  0  0  0  0  0  0  0  0  0
   -4.0335   -0.2454    0.5475 C   0  0  2  0  0  0  0  0  0  0  0  0
   -4.0680   -1.7637    0.3988 O   0  0  0  0  0  0  0  0  0  0  0  0
  2  1  1  6
  2  3  1  0
  3  4  1  0
  5  4  1  6
  5  6  1  0
  6  7  2  0
  7  8  1  0
  8  9  2  0
  9 10  1  0
  9 11  1  0
 11 12  2  0
 12 13  1  0
 13 14  1  0
 15 14  1  1
 15 16  1  0
 16 17  1  1
 17 18  1  0
 18 19  1  0
 19 20  1  6
 16  2  1  0
 19  2  1  0
 15  5  1  0
 12  6  1  0
M  END
>  <zinc_id>  (104) 
ZINC000013520815

>  <smiles>  (104) 
C[C@]12CC[C@@H]3c4ccc(O)cc4CC[C@H]3[C@@H]1CC[C@@H]2O

$$$$

     RDKit          3D

 13 12  0  0  0  0  0  0  0  0999 V2000
    4.7971    0.0951    1.7328 N   0  0  0  0  0  0  0  0  0  0  0  0
    4.0143    0.6637    0.6699 C   0  0  0  0  0  0  0  0  0  0  0  0
    3.1905   -0.3821   -0.0719 C   0  0  0  0  0  0  0  0  0  0  0  0
    3.1698    0.0458   -1.4662 N   0  0  0  0  0  0  0  0  0  0  0  0
    2.0737   -0.5166   -2.2052 C   0  0  0  0  0  0  0  0  0  0  0  0
    0.8241    0.2614   -1.8928 C   0  0  0  0  0  0  0  0  0  0  0  0
    0.0886   -0.5030   -0.8868 N   0  0  0  0  0  0  0  0  0  0  0  0
   -1.3247   -0.2282   -1.1355 C   0  0  0  0  0  0  0  0  0  0  0  0
   -1.7026    0.9624   -0.2652 C   0  0  0  0  0  0  0  0  0  0  0  0
   -3.1208    0.8609    0.0548 N   0  0  0  0  0  0  0  0  0  0  0  0
   -3.2919   -0.1031    1.1404 C   0  0  0  0  0  0  0  0  0  0  0  0
   -4.4975    0.3352    1.9372 C   0  0  0  0  0  0  0  0  0  0  0  0
   -4.2206    1.6983    2.3884 N   0  0  0  0  0  0  0  0  0  0  0  0
  1  2  1  0
  2  3  1  0
  3  4  1  0
  4  5  1  0
  5  6  1  0
  6  7  1  0
  7  8  1  0
  8  9  1  0
  9 10  1  0
 10 11  1  0
 11 12  1  0
 12 13  1  0
M  END
>  <zinc_id>  (105) 
ZINC000019363537

>  <smiles>  (105) 
NCCNCCNCCNCCN

$$$$

     RDKit          3D

  4  3  0  0  0  0  0  0  0  0999 V2000
   -0.2123    1.3016    0.0002 N   0  0  0  0  0  0  0  0  0  0  0  0
    0.0105    0.0301   -0.0252 C   0  0  0  0  0  0  0  0  0  0  0  0
   -1.1210   -0.8394   -0.0368 N   0  0  0  0  0  0  0  0  0  0  0  0
    1.3228   -0.4923    0.0618 N   0  0  0  0  0  0  0  0  0  0  0  0
  1  2  2  0
  2  3  1  0
  2  4  1  0
M  END
>  <zinc_id>  (106) 
ZINC000008101126

>  <smiles>  (106) 
N=C(N)N

$$$$

     RDKit          3D

 19 21  0  0  0  0  0  0  0  0999 V2000
   -4.5886    0.3726   -0.7570 O   0  0  0  0  0  0  0  0  0  0  0  0
   -3.5948    0.7930   -0.5956 C   0  0  0  0  0  0  0  0  0  0  0  0
   -3.3283    2.0927   -0.3265 N   0  0  0  0  0  0  0  0  0  0  0  0
   -2.1506    2.4861    0.2148 C   0  0  0  0  0  0  0  0  0  0  0  0
   -1.1370    1.6029    0.3891 N   0  0  0  0  0  0  0  0  0  0  0  0
   -1.2611    0.3680   -0.0972 C   0  0  0  0  0  0  0  0  0  0  0  0
   -2.5163   -0.0655   -0.4911 C   0  0  0  0  0  0  0  0  0  0  0  0
   -2.3315   -1.3630   -0.8352 N   0  0  0  0  0  0  0  0  0  0  0  0
   -1.0081   -1.5112   -1.0956 C   0  0  0  0  0  0  0  0  0  0  0  0
   -0.3223   -0.4389   -0.6234 N   0  0  0  0  0  0  0  0  0  0  0  0
    0.8785   -0.8392    0.3304 C   0  0  2  0  0  0  0  0  0  0  0  0
    1.4748    0.5573    0.3016 O   0  0  0  0  0  0  0  0  0  0  0  0
    2.5536   -0.0947    1.1264 C   0  0  2  0  0  0  0  0  0  0  0  0
    3.5773    1.1818    1.0044 C   0  0  0  0  0  0  0  0  0  0  0  0
    3.5006    1.6517   -0.2894 O   0  0  0  0  0  0  0  0  0  0  0  0
    3.2959   -0.8619   -0.2054 C   0  0  1  0  0  0  0  0  0  0  0  0
    3.3692   -2.1440    0.5716 O   0  0  0  0  0  0  0  0  0  0  0  0
    1.8448   -1.1533   -1.0440 C   0  0  1  0  0  0  0  0  0  0  0  0
    1.7438   -2.6344   -0.8332 O   0  0  0  0  0  0  0  0  0  0  0  0
  1  2  2  0
  2  3  1  0
  3  4  1  0
  4  5  2  0
  5  6  1  0
  6  7  2  0
  7  8  1  0
  8  9  2  0
  9 10  1  0
 11 10  1  6
 11 12  1  0
 12 13  1  0
 13 14  1  6
 14 15  1  0
 13 16  1  0
 16 17  1  1
 16 18  1  0
 18 19  1  1
  7  2  1  0
 18 11  1  0
 10  6  1  0
M  END
>  <zinc_id>  (107) 
ZINC000008855117

>  <smiles>  (107) 
O=c1[nH]cnc2c1ncn2[C@@H]1O[C@H](CO)[C@@H](O)[C@H]1O

$$$$

     RDKit          3D

 34 36  0  0  0  0  0  0  0  0999 V2000
    7.4954    2.8091   -0.6618 N   0  0  0  0  0  0  0  0  0  0  0  0
    7.0769    1.5070   -0.2298 C   0  0  0  0  0  0  0  0  0  0  0  0
    6.6786    0.6061   -1.1655 N   0  0  0  0  0  0  0  0  0  0  0  0
    5.6788   -0.2121   -0.8767 C   0  0  0  0  0  0  0  0  0  0  0  0
    5.0517   -0.2928    0.3649 C   0  0  0  0  0  0  0  0  0  0  0  0
    5.5870    0.5364    1.3442 C   0  0  0  0  0  0  0  0  0  0  0  0
    5.2641    0.2328    2.5253 O   0  0  0  0  0  0  0  0  0  0  0  0
    6.6665    1.3007    1.0462 N   0  0  0  0  0  0  0  0  0  0  0  0
    3.6665   -0.4449    0.3253 N   0  0  0  0  0  0  0  0  0  0  0  0
    2.9873   -0.3019    1.5831 C   0  0  0  0  0  0  0  0  0  0  0  0
    2.5205    0.7881    1.9943 O   0  0  0  0  0  0  0  0  0  0  0  0
    3.0393   -1.7317   -0.3841 C   0  0  1  0  0  0  0  0  0  0  0  0
    2.5154   -0.8294   -1.6922 C   0  0  0  0  0  0  0  0  0  0  0  0
    1.6139    0.1185   -1.1212 N   0  0  0  0  0  0  0  0  0  0  0  0
    0.2336   -0.0750   -0.8858 C   0  0  0  0  0  0  0  0  0  0  0  0
   -0.4013    0.8554   -0.0899 C   0  0  0  0  0  0  0  0  0  0  0  0
   -1.3523    0.3753    0.8071 C   0  0  0  0  0  0  0  0  0  0  0  0
   -1.9595   -0.8643    0.6448 C   0  0  0  0  0  0  0  0  0  0  0  0
   -3.3948   -0.9151    0.9586 C   0  0  0  0  0  0  0  0  0  0  0  0
   -3.9741   -1.9757    1.2602 O   0  0  0  0  0  0  0  0  0  0  0  0
   -4.2302    0.2496    0.9909 N   0  0  0  0  0  0  0  0  0  0  0  0
   -5.4932    0.1004    0.0149 C   0  0  1  0  0  0  0  0  0  0  0  0
   -6.3344    1.2760    0.8645 C   0  0  0  0  0  0  0  0  0  0  0  0
   -7.6506    1.1760    0.0968 C   0  0  0  0  0  0  0  0  0  0  0  0
   -7.9881   -0.2806    0.0144 C   0  0  0  0  0  0  0  0  0  0  0  0
   -7.7259   -0.8458   -1.0862 O   0  0  0  0  0  0  0  0  0  0  0  0
   -7.9167   -0.9821    1.2138 O   0  0  0  0  0  0  0  0  0  0  0  0
   -4.8681    1.2031   -1.0339 C   0  0  0  0  0  0  0  0  0  0  0  0
   -4.2666    0.5118   -1.9186 O   0  0  0  0  0  0  0  0  0  0  0  0
   -5.8045    2.0718   -1.5534 O   0  0  0  0  0  0  0  0  0  0  0  0
   -1.6074   -1.5411   -0.5189 C   0  0  0  0  0  0  0  0  0  0  0  0
   -0.4762   -1.1868   -1.2404 C   0  0  0  0  0  0  0  0  0  0  0  0
    4.4193   -2.2134   -1.1960 C   0  0  0  0  0  0  0  0  0  0  0  0
    4.9490   -1.0253   -1.8057 N   0  0  0  0  0  0  0  0  0  0  0  0
  1  2  1  0
  2  3  2  0
  3  4  1  0
  4  5  2  0
  5  6  1  0
  6  7  2  0
  6  8  1  0
  5  9  1  0
  9 10  1  0
 10 11  2  0
  9 12  1  0
 12 13  1  6
 13 14  1  0
 14 15  1  0
 15 16  2  0
 16 17  1  0
 17 18  2  0
 18 19  1  0
 19 20  2  0
 19 21  1  0
 22 21  1  1
 22 23  1  0
 23 24  1  0
 24 25  1  0
 25 26  2  0
 25 27  1  0
 22 28  1  0
 28 29  2  0
 28 30  1  0
 18 31  1  0
 31 32  2  0
 12 33  1  0
 33 34  1  0
  8  2  1  0
 32 15  1  0
 34  4  1  0
M  END
>  <zinc_id>  (108) 
ZINC000009212427

>  <smiles>  (108) 
Nc1nc2c(c(=O)[nH]1)N(C=O)[C@@H](CNc1ccc(C(=O)N[C@@H](CCC(=O)O)C(=O)O)cc1)CN2

$$$$

     RDKit          3D

  8  8  0  0  0  0  0  0  0  0999 V2000
    1.6041   -0.8117    0.0005 O   0  0  0  0  0  0  0  0  0  0  0  0
    1.3861   -0.0559    0.1043 C   0  0  0  0  0  0  0  0  0  0  0  0
    2.4288    0.8854    0.1362 O   0  0  0  0  0  0  0  0  0  0  0  0
    0.0030    0.5685   -0.4594 C   0  0  2  0  0  0  0  0  0  0  0  0
   -0.7004    0.5489    1.0265 C   0  0  0  0  0  0  0  0  0  0  0  0
   -2.1179    0.3350    0.5668 C   0  0  0  0  0  0  0  0  0  0  0  0
   -2.0035   -0.6161   -0.6010 C   0  0  0  0  0  0  0  0  0  0  0  0
   -0.6002   -0.8542   -0.7739 N   0  0  0  0  0  0  0  0  0  0  0  0
  1  2  2  0
  2  3  1  0
  4  2  1  1
  4  5  1  0
  5  6  1  0
  6  7  1  0
  7  8  1  0
  8  4  1  0
M  END
>  <zinc_id>  (109) 
ZINC000000895360

>  <smiles>  (109) 
O=C(O)[C@@H]1CCCN1

$$$$

     RDKit          3D

  7  6  0  0  0  0  0  0  0  0999 V2000
    0.0900   -1.2528    1.2430 N   0  0  0  0  0  0  0  0  0  0  0  0
    0.3768    0.2019    0.7046 C   0  0  1  0  0  0  0  0  0  0  0  0
    1.3181   -0.3667   -0.5211 C   0  0  0  0  0  0  0  0  0  0  0  0
    2.3416    0.5835   -0.6136 O   0  0  0  0  0  0  0  0  0  0  0  0
   -0.9354    0.2610   -0.2264 C   0  0  0  0  0  0  0  0  0  0  0  0
   -1.4299   -0.7603   -0.6634 O   0  0  0  0  0  0  0  0  0  0  0  0
   -1.7613    1.3335    0.0770 O   0  0  0  0  0  0  0  0  0  0  0  0
  2  1  1  1
  2  3  1  0
  3  4  1  0
  2  5  1  0
  5  6  2  0
  5  7  1  0
M  END
>  <zinc_id>  (110) 
ZINC000000895034

>  <smiles>  (110) 
N[C@@H](CO)C(=O)O

$$$$

     RDKit          3D

  9  8  0  0  0  0  0  0  0  0999 V2000
    1.0858    1.2144   -1.4275 N   0  0  0  0  0  0  0  0  0  0  0  0
    0.4089    0.8911   -0.0278 C   0  0  1  0  0  0  0  0  0  0  0  0
   -0.4257   -0.3946   -0.6542 C   0  0  0  0  0  0  0  0  0  0  0  0
   -1.7538   -0.2518   -0.0277 C   0  0  0  0  0  0  0  0  0  0  0  0
   -2.1630    0.7779    0.5525 O   0  0  0  0  0  0  0  0  0  0  0  0
   -2.6871   -1.2340   -0.3318 O   0  0  0  0  0  0  0  0  0  0  0  0
    1.6418   -0.0489    0.4508 C   0  0  0  0  0  0  0  0  0  0  0  0
    2.0882   -0.8532   -0.3624 O   0  0  0  0  0  0  0  0  0  0  0  0
    1.8049   -0.1009    1.8281 O   0  0  0  0  0  0  0  0  0  0  0  0
  2  1  1  6
  2  3  1  0
  3  4  1  0
  4  5  2  0
  4  6  1  0
  2  7  1  0
  7  8  2  0
  7  9  1  0
M  END
>  <zinc_id>  (111) 
ZINC000000895032

>  <smiles>  (111) 
N[C@@H](CC(=O)O)C(=O)O

$$$$

     RDKit          3D

 17 18  0  0  0  0  0  0  0  0999 V2000
    4.2197    0.5405   -1.5124 C   0  0  0  0  0  0  0  0  0  0  0  0
    2.6936   -0.0603   -1.2880 C   0  0  2  0  0  0  0  0  0  0  0  0
    2.1074    1.3465   -1.3235 O   0  0  0  0  0  0  0  0  0  0  0  0
    2.8770   -0.0455    0.4371 C   0  0  2  0  0  0  0  0  0  0  0  0
    2.6187   -1.5223    0.5729 O   0  0  0  0  0  0  0  0  0  0  0  0
    1.2386    0.4285    0.7031 C   0  0  2  0  0  0  0  0  0  0  0  0
    1.0394   -0.4703    2.0652 C   0  0  0  0  0  0  0  0  0  0  0  0
   -0.3920   -0.2676    2.2894 N   0  0  0  0  0  0  0  0  0  0  0  0
   -1.3255   -0.2363    1.2127 C   0  0  0  0  0  0  0  0  0  0  0  0
   -2.4679    0.5004    1.2264 N   0  0  0  0  0  0  0  0  0  0  0  0
   -2.9836    0.9262    0.0442 C   0  0  0  0  0  0  0  0  0  0  0  0
   -3.3769    2.2872   -0.1793 N   0  0  0  0  0  0  0  0  0  0  0  0
   -2.8873    0.0238   -0.9659 N   0  0  0  0  0  0  0  0  0  0  0  0
   -1.7560   -0.7300   -1.0089 C   0  0  0  0  0  0  0  0  0  0  0  0
   -1.3931   -1.3216   -2.0662 O   0  0  0  0  0  0  0  0  0  0  0  0
   -0.8096   -0.7131    0.0090 C   0  0  0  0  0  0  0  0  0  0  0  0
    0.5976   -0.6863   -0.2160 N   0  0  0  0  0  0  0  0  0  0  0  0
  2  1  1  6
  2  3  1  0
  2  4  1  0
  4  5  1  1
  4  6  1  0
  6  7  1  1
  7  8  1  0
  8  9  1  0
  9 10  1  0
 10 11  1  0
 11 12  1  0
 11 13  2  0
 13 14  1  0
 14 15  2  0
 14 16  1  0
 16 17  1  0
 17  6  1  0
 16  9  2  0
M  END
>  <zinc_id>  (112) 
ZINC000002539827

>  <smiles>  (112) 
C[C@H](O)[C@H](O)[C@@H]1CNc2[nH]c(N)nc(=O)c2N1

$$$$

     RDKit          3D

  9  8  0  0  0  0  0  0  0  0999 V2000
    3.2006   -0.2752    0.9846 N   0  0  0  0  0  0  0  0  0  0  0  0
    2.7066   -0.6871   -0.3268 C   0  0  0  0  0  0  0  0  0  0  0  0
    1.3994   -0.0209   -0.5121 C   0  0  0  0  0  0  0  0  0  0  0  0
    1.4403    1.1502   -0.8852 O   0  0  0  0  0  0  0  0  0  0  0  0
    0.0877   -0.6885   -0.2498 C   0  0  0  0  0  0  0  0  0  0  0  0
   -0.7921    0.2818    0.4915 C   0  0  0  0  0  0  0  0  0  0  0  0
   -2.2247    0.1450    0.1683 C   0  0  0  0  0  0  0  0  0  0  0  0
   -2.9456    1.1809    0.2901 O   0  0  0  0  0  0  0  0  0  0  0  0
   -2.8721   -1.0862    0.0394 O   0  0  0  0  0  0  0  0  0  0  0  0
  1  2  1  0
  2  3  1  0
  3  4  2  0
  3  5  1  0
  5  6  1  0
  6  7  1  0
  7  8  2  0
  7  9  1  0
M  END
>  <zinc_id>  (113) 
ZINC000003782550

>  <smiles>  (113) 
NCC(=O)CCC(=O)O

$$$$

     RDKit          3D

 25 25  0  0  0  0  0  0  0  0999 V2000
   -5.4799    3.7422    0.0717 C   0  0  0  0  0  0  0  0  0  0  0  0
   -5.2260    2.9073    0.1342 C   0  0  0  0  0  0  0  0  0  0  0  0
   -5.7615    1.5169    0.1769 C   0  0  0  0  0  0  0  0  0  0  0  0
   -4.8778    0.7328    1.1279 C   0  0  0  0  0  0  0  0  0  0  0  0
   -3.4330    1.0833    1.0462 C   0  0  0  0  0  0  0  0  0  0  0  0
   -2.9987    1.0917   -0.5448 C   0  0  2  0  0  0  0  0  0  0  0  0
   -3.7947   -0.1660   -0.8496 O   0  0  0  0  0  0  0  0  0  0  0  0
   -1.6360    0.2432   -0.3017 C   0  0  0  0  0  0  0  0  0  0  0  0
   -1.6079   -0.6520    0.5783 C   0  0  0  0  0  0  0  0  0  0  0  0
   -0.7387   -1.9579    0.6062 C   0  0  1  0  0  0  0  0  0  0  0  0
   -1.6281   -2.6927   -0.6468 C   0  0  2  0  0  0  0  0  0  0  0  0
   -2.2992   -3.6129    0.3467 O   0  0  0  0  0  0  0  0  0  0  0  0
   -0.4560   -3.7868   -0.9671 C   0  0  0  0  0  0  0  0  0  0  0  0
    0.7967   -3.0762   -0.5864 C   0  0  0  0  0  0  0  0  0  0  0  0
    1.3933   -3.6292    0.3397 O   0  0  0  0  0  0  0  0  0  0  0  0
    0.3828   -1.5379   -0.5770 C   0  0  2  0  0  0  0  0  0  0  0  0
    1.4797   -1.0595    0.5210 C   0  0  0  0  0  0  0  0  0  0  0  0
    1.5559    0.4138    0.2901 C   0  0  0  0  0  0  0  0  0  0  0  0
    2.6304    0.9177   -0.3039 C   0  0  0  0  0  0  0  0  0  0  0  0
    3.8218    0.0565   -0.5141 C   0  0  0  0  0  0  0  0  0  0  0  0
    4.8562    0.2333    0.4873 C   0  0  0  0  0  0  0  0  0  0  0  0
    5.2123    1.5701    0.9855 C   0  0  0  0  0  0  0  0  0  0  0  0
    5.7695    2.3470   -0.1827 C   0  0  0  0  0  0  0  0  0  0  0  0
    4.9273    2.8662   -0.9686 O   0  0  0  0  0  0  0  0  0  0  0  0
    7.1115    2.4491   -0.4585 O   0  0  0  0  0  0  0  0  0  0  0  0
  1  2  1  0
  2  3  1  0
  3  4  1  0
  4  5  1  0
  6  5  1  1
  6  7  1  0
  6  8  1  0
  8  9  2  0
 10  9  1  6
 10 11  1  0
 11 12  1  1
 11 13  1  0
 13 14  1  0
 14 15  2  0
 14 16  1  0
 16 17  1  1
 17 18  1  0
 18 19  2  0
 19 20  1  0
 20 21  1  0
 21 22  1  0
 22 23  1  0
 23 24  2  0
 23 25  1  0
 16 10  1  0
M  END
>  <zinc_id>  (114) 
ZINC000003830713

>  <smiles>  (114) 
CCCCC[C@H](O)/C=C/[C@H]1[C@H](O)CC(=O)[C@@H]1C/C=C\CCCC(=O)O

$$$$

     RDKit          3D

 24 27  0  0  0  0  0  0  0  0999 V2000
   -3.7972    0.3172    2.2613 C   0  0  0  0  0  0  0  0  0  0  0  0
   -2.5688    0.2645    2.8839 C   0  0  2  0  0  0  0  0  0  0  0  0
   -1.6295    1.3995    2.7828 C   0  0  0  0  0  0  0  0  0  0  0  0
   -1.2557    1.5929    1.3131 C   0  0  0  0  0  0  0  0  0  0  0  0
   -0.4085    0.2244    1.0586 C   0  0  2  0  0  0  0  0  0  0  0  0
   -0.1366    0.5341   -0.4852 C   0  0  0  0  0  0  0  0  0  0  0  0
    1.0554    1.2665   -0.4924 C   0  0  0  0  0  0  0  0  0  0  0  0
    2.0333    1.1793   -1.4224 C   0  0  0  0  0  0  0  0  0  0  0  0
    1.7890    0.3080   -2.4877 C   0  0  0  0  0  0  0  0  0  0  0  0
    2.6511    0.1438   -3.5603 O   0  0  0  0  0  0  0  0  0  0  0  0
    4.2271    0.7012   -3.6589 S   0  0  0  0  0  0  0  0  0  0  0  0
    4.6660    0.6358   -5.1117 O   0  0  0  0  0  0  0  0  0  0  0  0
    4.4003    2.1163   -3.2120 O   0  0  0  0  0  0  0  0  0  0  0  0
    5.2591   -0.2490   -2.6954 O   0  0  0  0  0  0  0  0  0  0  0  0
    0.6610   -0.5064   -2.4746 C   0  0  0  0  0  0  0  0  0  0  0  0
   -0.1209   -0.5562   -1.3393 C   0  0  0  0  0  0  0  0  0  0  0  0
   -0.9318   -1.7817   -1.1337 C   0  0  0  0  0  0  0  0  0  0  0  0
   -1.0236   -1.9766    0.3790 C   0  0  0  0  0  0  0  0  0  0  0  0
   -1.8225   -0.6628    0.8254 C   0  0  1  0  0  0  0  0  0  0  0  0
   -1.7579   -1.0735    2.4547 C   0  0  2  0  0  0  0  0  0  0  0  0
   -3.1420   -1.9025    2.4844 C   0  0  0  0  0  0  0  0  0  0  0  0
   -3.3357   -1.6596    3.9815 C   0  0  0  0  0  0  0  0  0  0  0  0
   -2.7939   -0.2822    4.2570 C   0  0  0  0  0  0  0  0  0  0  0  0
   -2.0178   -0.0332    5.1646 O   0  0  0  0  0  0  0  0  0  0  0  0
  2  1  1  6
  2  3  1  0
  3  4  1  0
  5  4  1  1
  5  6  1  0
  6  7  2  0
  7  8  1  0
  8  9  2  0
  9 10  1  0
 10 11  1  0
 11 12  2  0
 11 13  2  0
 11 14  1  0
  9 15  1  0
 15 16  2  0
 16 17  1  0
 17 18  1  0
 19 18  1  6
 19 20  1  0
 20 21  1  6
 21 22  1  0
 22 23  1  0
 23 24  2  0
 20  2  1  0
 23  2  1  0
 19  5  1  0
 16  6  1  0
M  END
>  <zinc_id>  (115) 
ZINC000003876186

>  <smiles>  (115) 
C[C@]12CC[C@@H]3c4ccc(OS(=O)(=O)O)cc4CC[C@H]3[C@@H]1CCC2=O

$$$$

     RDKit          3D

 28 31  0  0  0  0  0  0  0  0999 V2000
    3.1414   -0.0077   -0.9570 C   0  0  0  0  0  0  0  0  0  0  0  0
    3.2482    0.8917    0.3849 C   0  0  2  0  0  0  0  0  0  0  0  0
    4.6054    0.1313    0.8534 C   0  0  0  0  0  0  0  0  0  0  0  0
    5.4121    0.1399   -0.3981 C   0  0  0  0  0  0  0  0  0  0  0  0
    6.7632   -0.3627   -0.3272 C   0  0  0  0  0  0  0  0  0  0  0  0
    7.5885    0.3890    0.2768 O   0  0  0  0  0  0  0  0  0  0  0  0
    6.8844   -1.7444   -0.3520 O   0  0  0  0  0  0  0  0  0  0  0  0
    2.3047   -0.0896    1.4153 C   0  0  1  0  0  0  0  0  0  0  0  0
    1.7587    1.2374    2.1804 C   0  0  0  0  0  0  0  0  0  0  0  0
    0.5362    1.6688    1.4600 C   0  0  0  0  0  0  0  0  0  0  0  0
   -0.1094    0.1883    1.5448 C   0  0  1  0  0  0  0  0  0  0  0  0
   -1.2027    0.3985    0.2994 C   0  0  2  0  0  0  0  0  0  0  0  0
   -2.4750    0.9938    1.2126 C   0  0  1  0  0  0  0  0  0  0  0  0
   -1.9137    2.4008    1.1244 O   0  0  0  0  0  0  0  0  0  0  0  0
   -3.4255    1.2455   -0.0916 C   0  0  0  0  0  0  0  0  0  0  0  0
   -2.8569    0.2303   -1.2403 C   0  0  2  0  0  0  0  0  0  0  0  0
   -4.1788   -0.0697   -2.0825 C   0  0  0  0  0  0  0  0  0  0  0  0
   -5.6269    0.0121   -1.3818 C   0  0  2  0  0  0  0  0  0  0  0  0
   -5.5503    1.5239   -1.1664 O   0  0  0  0  0  0  0  0  0  0  0  0
   -5.2712   -0.3299    0.1900 C   0  0  0  0  0  0  0  0  0  0  0  0
   -4.1966   -1.2247    0.3344 C   0  0  0  0  0  0  0  0  0  0  0  0
   -2.9666   -1.1559   -0.3970 C   0  0  1  0  0  0  0  0  0  0  0  0
   -2.8617   -2.3042   -1.3313 C   0  0  0  0  0  0  0  0  0  0  0  0
   -1.6824   -1.1796    0.5774 C   0  0  1  0  0  0  0  0  0  0  0  0
   -0.6105   -1.7106   -0.5262 C   0  0  0  0  0  0  0  0  0  0  0  0
    0.7566   -1.6830    0.1587 C   0  0  0  0  0  0  0  0  0  0  0  0
    1.0215   -0.2795    0.4776 C   0  0  2  0  0  0  0  0  0  0  0  0
    0.9070    0.6904   -0.5906 C   0  0  0  0  0  0  0  0  0  0  0  0
  2  1  1  6
  2  3  1  0
  3  4  1  0
  4  5  1  0
  5  6  2  0
  5  7  1  0
  2  8  1  0
  8  9  1  1
  9 10  1  0
 11 10  1  6
 11 12  1  0
 12 13  1  1
 13 14  1  6
 13 15  1  0
 16 15  1  1
 16 17  1  0
 17 18  1  0
 18 19  1  1
 18 20  1  0
 20 21  1  0
 21 22  1  0
 22 23  1  6
 22 24  1  0
 24 25  1  6
 25 26  1  0
 26 27  1  0
 27 28  1  6
 27  8  1  0
 27 11  1  0
 24 12  1  0
 22 16  1  0
M  END
>  <zinc_id>  (116) 
ZINC000003914809

>  <smiles>  (116) 
C[C@H](CCC(=O)O)[C@H]1CC[C@H]2[C@@H]3[C@@H](O)C[C@@H]4C[C@H](O)CC[C@]4(C)[C@H]3CC[C@@]21C

$$$$

     RDKit          3D

 13 12  0  0  0  0  0  0  0  0999 V2000
   -3.6233   -0.8588   -0.9102 N   0  0  0  0  0  0  0  0  0  0  0  0
   -2.8675   -0.8248   -0.3339 C   0  0  0  0  0  0  0  0  0  0  0  0
   -2.7585   -1.7669    0.5085 O   0  0  0  0  0  0  0  0  0  0  0  0
   -1.6255   -0.2491   -0.7506 N   0  0  0  0  0  0  0  0  0  0  0  0
   -0.6306    0.1024    0.4285 C   0  0  1  0  0  0  0  0  0  0  0  0
    0.6904   -0.0444   -0.5558 C   0  0  0  0  0  0  0  0  0  0  0  0
    1.7594   -0.1094    0.4969 C   0  0  0  0  0  0  0  0  0  0  0  0
    3.0394   -0.6592    0.0333 C   0  0  0  0  0  0  0  0  0  0  0  0
    3.2543   -1.9084    0.0689 O   0  0  0  0  0  0  0  0  0  0  0  0
    4.0515    0.2520   -0.2837 O   0  0  0  0  0  0  0  0  0  0  0  0
   -0.7344    1.7002    0.1771 C   0  0  0  0  0  0  0  0  0  0  0  0
    0.1620    2.2392    0.9015 O   0  0  0  0  0  0  0  0  0  0  0  0
   -0.7174    2.1271   -1.1288 O   0  0  0  0  0  0  0  0  0  0  0  0
  1  2  1  0
  2  3  2  0
  2  4  1  0
  5  4  1  6
  5  6  1  0
  6  7  1  0
  7  8  1  0
  8  9  2  0
  8 10  1  0
  5 11  1  0
 11 12  2  0
 11 13  1  0
M  END
>  <zinc_id>  (117) 
ZINC000001530283

>  <smiles>  (117) 
NC(=O)N[C@@H](CCC(=O)O)C(=O)O

$$$$

     RDKit          3D

 19 21  0  0  0  0  0  0  0  0999 V2000
    4.5635    0.9760    0.1745 N   0  0  0  0  0  0  0  0  0  0  0  0
    3.5615    0.0896    0.1207 C   0  0  0  0  0  0  0  0  0  0  0  0
    3.6922   -1.0484   -0.5799 N   0  0  0  0  0  0  0  0  0  0  0  0
    2.6712   -1.8913   -0.7192 C   0  0  0  0  0  0  0  0  0  0  0  0
    1.4247   -1.4327   -0.5956 N   0  0  0  0  0  0  0  0  0  0  0  0
    1.2314   -0.2813    0.0898 C   0  0  0  0  0  0  0  0  0  0  0  0
    2.3040    0.5210    0.4443 C   0  0  0  0  0  0  0  0  0  0  0  0
    1.7749    1.5712    1.0723 N   0  0  0  0  0  0  0  0  0  0  0  0
    0.4550    1.5186    0.9001 C   0  0  0  0  0  0  0  0  0  0  0  0
    0.1000    0.4682    0.1573 N   0  0  0  0  0  0  0  0  0  0  0  0
   -1.0321   -0.4497    0.8033 C   0  0  2  0  0  0  0  0  0  0  0  0
   -1.3225   -1.0205   -0.5263 O   0  0  0  0  0  0  0  0  0  0  0  0
   -2.7157   -0.8321   -0.9388 C   0  0  2  0  0  0  0  0  0  0  0  0
   -2.4079    0.7061   -1.4750 C   0  0  0  0  0  0  0  0  0  0  0  0
   -3.6648    1.2478   -1.2440 O   0  0  0  0  0  0  0  0  0  0  0  0
   -3.3870   -0.3491    0.5605 C   0  0  1  0  0  0  0  0  0  0  0  0
   -2.7588   -1.4837    1.3091 O   0  0  0  0  0  0  0  0  0  0  0  0
   -2.1667    0.8190    0.7119 C   0  0  1  0  0  0  0  0  0  0  0  0
   -2.3230    0.8713    2.1973 O   0  0  0  0  0  0  0  0  0  0  0  0
  1  2  1  0
  2  3  2  0
  3  4  1  0
  4  5  2  0
  5  6  1  0
  6  7  2  0
  7  8  1  0
  8  9  2  0
  9 10  1  0
 11 10  1  6
 11 12  1  0
 12 13  1  0
 13 14  1  6
 14 15  1  0
 13 16  1  0
 16 17  1  1
 16 18  1  0
 18 19  1  1
  7  2  1  0
 18 11  1  0
 10  6  1  0
M  END
>  <zinc_id>  (118) 
ZINC000002169830

>  <smiles>  (118) 
Nc1ncnc2c1ncn2[C@@H]1O[C@H](CO)[C@@H](O)[C@H]1O

$$$$

     RDKit          3D

  4  3  0  0  0  0  0  0  0  0999 V2000
   -0.1709    1.2915   -0.0417 O   0  0  0  0  0  0  0  0  0  0  0  0
    0.0040    0.0454    0.1024 C   0  0  0  0  0  0  0  0  0  0  0  0
    1.2661   -0.5400    0.0029 O   0  0  0  0  0  0  0  0  0  0  0  0
   -1.0992   -0.7969   -0.0637 O   0  0  0  0  0  0  0  0  0  0  0  0
  1  2  2  0
  2  3  1  0
  2  4  1  0
M  END
>  <zinc_id>  (119) 
ZINC000006827693

>  <smiles>  (119) 
O=C(O)O

$$$$

     RDKit          3D

 29 32  0  0  0  0  0  0  0  0999 V2000
    2.7963   -0.0878    3.7051 C   0  0  0  0  0  0  0  0  0  0  0  0
    2.8742   -0.7434    2.2321 C   0  0  2  0  0  0  0  0  0  0  0  0
    4.2149    0.1011    1.8755 C   0  0  0  0  0  0  0  0  0  0  0  0
    5.1164   -0.7851    1.0881 C   0  0  0  0  0  0  0  0  0  0  0  0
    5.7493   -0.1883   -0.0920 C   0  0  0  0  0  0  0  0  0  0  0  0
    6.5534    0.7592   -0.0254 O   0  0  0  0  0  0  0  0  0  0  0  0
    5.7394   -0.9106   -1.2892 O   0  0  0  0  0  0  0  0  0  0  0  0
    1.8357    0.4389    1.5955 C   0  0  1  0  0  0  0  0  0  0  0  0
    2.5905    0.3733    0.1616 C   0  0  0  0  0  0  0  0  0  0  0  0
    1.7441   -0.3543   -0.7592 C   0  0  0  0  0  0  0  0  0  0  0  0
    0.4335    0.4171   -0.1688 C   0  0  1  0  0  0  0  0  0  0  0  0
   -0.5867   -0.6426   -0.9489 C   0  0  2  0  0  0  0  0  0  0  0  0
   -0.6698    0.4323   -2.2661 C   0  0  2  0  0  0  0  0  0  0  0  0
   -1.3101    1.6100   -1.5579 O   0  0  0  0  0  0  0  0  0  0  0  0
   -1.9941   -0.1407   -2.9409 C   0  0  0  0  0  0  0  0  0  0  0  0
   -3.3698   -0.3358   -2.1816 C   0  0  2  0  0  0  0  0  0  0  0  0
   -3.5396    1.0691   -1.3468 C   0  0  0  0  0  0  0  0  0  0  0  0
   -5.1651    0.8513   -1.1597 C   0  0  2  0  0  0  0  0  0  0  0  0
   -5.2250    1.9736   -0.1337 O   0  0  0  0  0  0  0  0  0  0  0  0
   -5.0129   -0.2684    0.0284 C   0  0  0  0  0  0  0  0  0  0  0  0
   -4.1343   -1.3358   -0.2579 C   0  0  0  0  0  0  0  0  0  0  0  0
   -2.8352   -1.1776   -0.8779 C   0  0  1  0  0  0  0  0  0  0  0  0
   -2.1628   -2.2940   -1.4853 C   0  0  0  0  0  0  0  0  0  0  0  0
   -1.9203   -0.1009   -0.1131 C   0  0  1  0  0  0  0  0  0  0  0  0
   -1.6451   -1.0572    1.1560 C   0  0  0  0  0  0  0  0  0  0  0  0
   -0.6121   -0.1983    2.1186 C   0  0  2  0  0  0  0  0  0  0  0  0
   -0.9191    1.1924    1.5886 O   0  0  0  0  0  0  0  0  0  0  0  0
    0.6341   -0.5088    1.1265 C   0  0  2  0  0  0  0  0  0  0  0  0
    0.8200   -1.8445    0.9284 C   0  0  0  0  0  0  0  0  0  0  0  0
  2  1  1  1
  2  3  1  0
  3  4  1  0
  4  5  1  0
  5  6  2  0
  5  7  1  0
  2  8  1  0
  8  9  1  6
  9 10  1  0
 11 10  1  6
 11 12  1  0
 12 13  1  6
 13 14  1  1
 13 15  1  0
 16 15  1  6
 16 17  1  0
 17 18  1  0
 18 19  1  1
 18 20  1  0
 20 21  1  0
 21 22  1  0
 22 23  1  6
 22 24  1  0
 24 25  1  1
 25 26  1  0
 26 27  1  6
 26 28  1  0
 28 29  1  6
 28  8  1  0
 28 11  1  0
 24 12  1  0
 22 16  1  0
M  END
>  <zinc_id>  (120) 
ZINC000006858022

>  <smiles>  (120) 
C[C@H](CCC(=O)O)[C@H]1CC[C@H]2[C@H]3[C@H](C[C@H](O)[C@@]21C)[C@@]1(C)CC[C@@H](O)C[C@H]1C[C@H]3O

$$$$

     RDKit          3D

 12 11  0  0  0  0  0  0  0  0999 V2000
   -3.0850    0.4422   -0.3734 O   0  0  0  0  0  0  0  0  0  0  0  0
   -2.6970    0.6591    0.9172 C   0  0  0  0  0  0  0  0  0  0  0  0
   -1.3979   -0.3587    1.1605 C   0  0  1  0  0  0  0  0  0  0  0  0
   -2.1962   -1.5530    0.6164 O   0  0  0  0  0  0  0  0  0  0  0  0
   -0.6910   -0.0392   -0.4082 C   0  0  1  0  0  0  0  0  0  0  0  0
   -0.7702    1.4661   -0.2644 O   0  0  0  0  0  0  0  0  0  0  0  0
    0.9039   -0.1928    0.2580 C   0  0  2  0  0  0  0  0  0  0  0  0
    0.7055    0.8549    1.3320 O   0  0  0  0  0  0  0  0  0  0  0  0
    1.5518    0.9701   -0.8729 C   0  0  2  0  0  0  0  0  0  0  0  0
    1.1540    0.0788   -2.0582 O   0  0  0  0  0  0  0  0  0  0  0  0
    3.0561    0.2525   -0.8156 C   0  0  0  0  0  0  0  0  0  0  0  0
    3.4661    0.4595    0.5086 O   0  0  0  0  0  0  0  0  0  0  0  0
  1  2  1  0
  3  2  1  6
  3  4  1  0
  3  5  1  0
  5  6  1  1
  5  7  1  0
  7  8  1  1
  7  9  1  0
  9 10  1  6
  9 11  1  0
 11 12  1  0
M  END
>  <zinc_id>  (121) 
ZINC000002041302

>  <smiles>  (121) 
OC[C@@H](O)[C@@H](O)[C@H](O)[C@H](O)CO

$$$$

     RDKit          3D

 17 18  0  0  0  0  0  0  0  0999 V2000
    3.6695    1.4938    0.7743 C   0  0  0  0  0  0  0  0  0  0  0  0
    3.7588    0.3228   -0.3877 C   0  0  1  0  0  0  0  0  0  0  0  0
    4.9830   -0.2964    0.2695 O   0  0  0  0  0  0  0  0  0  0  0  0
    2.6901   -0.7104    0.4955 C   0  0  2  0  0  0  0  0  0  0  0  0
    2.6148   -1.6715   -0.6557 O   0  0  0  0  0  0  0  0  0  0  0  0
    1.3242    0.1455   -0.0978 C   0  0  2  0  0  0  0  0  0  0  0  0
    1.1036    0.9102    1.3367 C   0  0  0  0  0  0  0  0  0  0  0  0
   -0.1542    1.6088    1.1354 N   0  0  0  0  0  0  0  0  0  0  0  0
   -1.2049    0.8210    0.6054 C   0  0  0  0  0  0  0  0  0  0  0  0
   -2.3927    1.3743    0.3132 N   0  0  0  0  0  0  0  0  0  0  0  0
   -3.5092    0.6126    0.2901 C   0  0  0  0  0  0  0  0  0  0  0  0
   -4.7739    1.2011    0.5150 N   0  0  0  0  0  0  0  0  0  0  0  0
   -3.3458   -0.6781   -0.0288 N   0  0  0  0  0  0  0  0  0  0  0  0
   -2.1111   -1.2257   -0.0580 C   0  0  0  0  0  0  0  0  0  0  0  0
   -1.9826   -2.4255   -0.3252 O   0  0  0  0  0  0  0  0  0  0  0  0
   -0.9984   -0.4775    0.1785 C   0  0  0  0  0  0  0  0  0  0  0  0
    0.3289   -1.0050    0.3082 N   0  0  0  0  0  0  0  0  0  0  0  0
  2  1  1  1
  2  3  1  0
  2  4  1  0
  4  5  1  6
  4  6  1  0
  6  7  1  1
  7  8  1  0
  8  9  1  0
  9 10  1  0
 10 11  1  0
 11 12  1  0
 11 13  2  0
 13 14  1  0
 14 15  2  0
 14 16  1  0
 16 17  1  0
 17  6  1  0
 16  9  2  0
M  END
>  <zinc_id>  (122) 
ZINC000000895154

>  <smiles>  (122) 
C[C@@H](O)[C@H](O)[C@@H]1CNc2[nH]c(N)nc(=O)c2N1

$$$$

     RDKit          3D

 12 12  0  0  0  0  0  0  0  0999 V2000
    3.6378    1.2632   -0.5218 O   0  0  0  0  0  0  0  0  0  0  0  0
    3.4513    0.1032   -0.0461 C   0  0  0  0  0  0  0  0  0  0  0  0
    4.0683   -0.2221    1.1659 O   0  0  0  0  0  0  0  0  0  0  0  0
    2.0618   -0.4260   -0.2197 C   0  0  0  0  0  0  0  0  0  0  0  0
    1.1454    0.6165    0.3938 C   0  0  0  0  0  0  0  0  0  0  0  0
    0.0254    0.8985   -0.6001 C   0  0  0  0  0  0  0  0  0  0  0  0
   -1.2122    0.3499    0.0334 C   0  0  0  0  0  0  0  0  0  0  0  0
   -1.2494   -0.9127    0.6086 C   0  0  0  0  0  0  0  0  0  0  0  0
   -2.3505   -1.7361    0.4043 C   0  0  0  0  0  0  0  0  0  0  0  0
   -3.5509   -1.1409    0.0537 C   0  0  0  0  0  0  0  0  0  0  0  0
   -3.5874    0.2191   -0.1239 C   0  0  0  0  0  0  0  0  0  0  0  0
   -2.4395    0.9874   -0.0884 C   0  0  0  0  0  0  0  0  0  0  0  0
  1  2  2  0
  2  3  1  0
  2  4  1  0
  4  5  1  0
  5  6  1  0
  6  7  1  0
  7  8  2  0
  8  9  1  0
  9 10  2  0
 10 11  1  0
 11 12  2  0
 12  7  1  0
M  END
>  <zinc_id>  (123) 
ZINC000000056568

>  <smiles>  (123) 
O=C(O)CCCc1ccccc1

$$$$

     RDKit          3D

 15 15  0  0  0  0  0  0  0  0999 V2000
    2.3930    1.4670    0.4134 C   0  0  0  0  0  0  0  0  0  0  0  0
    2.0267    0.1989   -0.2498 C   0  0  2  0  0  0  0  0  0  0  0  0
    1.3932    0.5208   -1.5259 N   0  0  0  0  0  0  0  0  0  0  0  0
    1.0565   -0.5336    0.6602 C   0  0  0  0  0  0  0  0  0  0  0  0
   -0.3126   -0.1382    0.2286 C   0  0  0  0  0  0  0  0  0  0  0  0
   -0.6040    1.2100    0.0903 C   0  0  0  0  0  0  0  0  0  0  0  0
   -1.8863    1.6007   -0.2768 C   0  0  0  0  0  0  0  0  0  0  0  0
   -2.9332    0.7120   -0.1202 C   0  0  0  0  0  0  0  0  0  0  0  0
   -4.1794    1.0996    0.3763 O   0  0  0  0  0  0  0  0  0  0  0  0
   -2.6027   -0.6333   -0.2246 C   0  0  0  0  0  0  0  0  0  0  0  0
   -3.6196   -1.5663   -0.3681 O   0  0  0  0  0  0  0  0  0  0  0  0
   -1.3018   -1.0614   -0.0571 C   0  0  0  0  0  0  0  0  0  0  0  0
    3.1826   -0.6976   -0.4856 C   0  0  0  0  0  0  0  0  0  0  0  0
    2.9310   -1.9206   -0.6648 O   0  0  0  0  0  0  0  0  0  0  0  0
    4.4567   -0.2579   -0.7774 O   0  0  0  0  0  0  0  0  0  0  0  0
  2  1  1  1
  2  3  1  0
  2  4  1  0
  4  5  1  0
  5  6  2  0
  6  7  1  0
  7  8  2  0
  8  9  1  0
  8 10  1  0
 10 11  1  0
 10 12  2  0
  2 13  1  0
 13 14  2  0
 13 15  1  0
 12  5  1  0
M  END
>  <zinc_id>  (124) 
ZINC000000020255

>  <smiles>  (124) 
C[C@](N)(Cc1ccc(O)c(O)c1)C(=O)O

$$$$

     RDKit          3D

  9  9  0  0  0  0  0  0  0  0999 V2000
    2.6142   -0.7104    0.2383 O   0  0  0  0  0  0  0  0  0  0  0  0
    1.7190    0.1270    0.0007 C   0  0  0  0  0  0  0  0  0  0  0  0
    1.9576    1.2533   -0.7927 O   0  0  0  0  0  0  0  0  0  0  0  0
    0.3248   -0.2633    0.2525 C   0  0  0  0  0  0  0  0  0  0  0  0
   -0.4066    0.5915    1.0685 C   0  0  0  0  0  0  0  0  0  0  0  0
   -1.7805    0.7148    0.8998 C   0  0  0  0  0  0  0  0  0  0  0  0
   -2.4041   -0.1814    0.0741 C   0  0  0  0  0  0  0  0  0  0  0  0
   -1.6678   -0.6326   -0.9632 N   0  0  0  0  0  0  0  0  0  0  0  0
   -0.3566   -0.8989   -0.7781 C   0  0  0  0  0  0  0  0  0  0  0  0
  1  2  2  0
  2  3  1  0
  2  4  1  0
  4  5  2  0
  5  6  1  0
  6  7  2  0
  7  8  1  0
  8  9  2  0
  9  4  1  0
M  END
>  <zinc_id>  (125) 
ZINC000000001795

>  <smiles>  (125) 
O=C(O)c1cccnc1

$$$$

     RDKit          3D

 14 14  0  0  0  0  0  0  0  0999 V2000
   -4.7211    0.5527   -0.4885 N   0  0  0  0  0  0  0  0  0  0  0  0
   -3.3172    0.3441   -0.2998 C   0  0  0  0  0  0  0  0  0  0  0  0
   -2.5758   -0.0630   -1.4008 C   0  0  0  0  0  0  0  0  0  0  0  0
   -1.4698   -0.8794   -1.1944 C   0  0  0  0  0  0  0  0  0  0  0  0
   -0.8805   -1.0127    0.0580 C   0  0  0  0  0  0  0  0  0  0  0  0
    0.5818   -0.8925    0.1712 C   0  0  0  0  0  0  0  0  0  0  0  0
    1.3335   -1.7419   -0.3960 O   0  0  0  0  0  0  0  0  0  0  0  0
    1.2133    0.3504    0.4990 N   0  0  0  0  0  0  0  0  0  0  0  0
    2.2424    0.9501   -0.3348 C   0  0  0  0  0  0  0  0  0  0  0  0
    3.5796    0.9113    0.3098 C   0  0  0  0  0  0  0  0  0  0  0  0
    4.3102   -0.0772    0.0048 O   0  0  0  0  0  0  0  0  0  0  0  0
    4.2543    2.1322    0.3977 O   0  0  0  0  0  0  0  0  0  0  0  0
   -1.6583   -0.5730    1.1176 C   0  0  0  0  0  0  0  0  0  0  0  0
   -2.8924   -0.0011    0.9751 C   0  0  0  0  0  0  0  0  0  0  0  0
  1  2  1  0
  2  3  2  0
  3  4  1  0
  4  5  2  0
  5  6  1  0
  6  7  2  0
  6  8  1  0
  8  9  1  0
  9 10  1  0
 10 11  2  0
 10 12  1  0
  5 13  1  0
 13 14  2  0
 14  2  1  0
M  END
>  <zinc_id>  (126) 
ZINC000000119344

>  <smiles>  (126) 
Nc1ccc(C(=O)NCC(=O)O)cc1

$$$$

     RDKit          3D

 10  9  0  0  0  0  0  0  0  0999 V2000
    3.0309   -1.5284   -0.5229 C   0  0  0  0  0  0  0  0  0  0  0  0
    2.2968   -0.3517   -0.0063 C   0  0  0  0  0  0  0  0  0  0  0  0
    2.9326    0.7277    0.1950 O   0  0  0  0  0  0  0  0  0  0  0  0
    0.9144   -0.2144   -0.0609 O   0  0  0  0  0  0  0  0  0  0  0  0
    0.2533    0.9244   -0.5496 C   0  0  0  0  0  0  0  0  0  0  0  0
   -1.0356    1.2241    0.1543 C   0  0  0  0  0  0  0  0  0  0  0  0
   -1.8428    0.0739    0.4328 N   0  0  0  0  0  0  0  0  0  0  0  0
   -3.2192    0.4099    0.0741 C   0  0  0  0  0  0  0  0  0  0  0  0
   -1.5030   -1.0899   -0.3423 C   0  0  0  0  0  0  0  0  0  0  0  0
   -1.8274   -0.1756    1.8670 C   0  0  0  0  0  0  0  0  0  0  0  0
  1  2  1  0
  2  3  2  0
  2  4  1  0
  4  5  1  0
  5  6  1  0
  6  7  1  0
  7  8  1  0
  7  9  1  0
  7 10  1  0
M  CHG  1   7   1
M  END
>  <zinc_id>  (127) 
ZINC000003079336

>  <smiles>  (127) 
CC(=O)OCC[N+](C)(C)C

$$$$

     RDKit          3D

 25 25  0  0  0  0  0  0  0  0999 V2000
   -5.5448    1.1702    4.2662 C   0  0  0  0  0  0  0  0  0  0  0  0
   -4.7332    1.4989    3.1550 C   0  0  0  0  0  0  0  0  0  0  0  0
   -4.0965    0.2623    2.5520 C   0  0  0  0  0  0  0  0  0  0  0  0
   -3.6750    0.6910    1.1561 C   0  0  0  0  0  0  0  0  0  0  0  0
   -4.7852    0.4413    0.2486 C   0  0  0  0  0  0  0  0  0  0  0  0
   -4.2479   -0.3038   -1.1171 C   0  0  2  0  0  0  0  0  0  0  0  0
   -5.2384   -1.4406   -0.9119 O   0  0  0  0  0  0  0  0  0  0  0  0
   -3.0539   -1.1389   -0.3758 C   0  0  0  0  0  0  0  0  0  0  0  0
   -1.8828   -0.6555   -0.4922 C   0  0  0  0  0  0  0  0  0  0  0  0
   -0.6209   -1.3576   -1.1503 C   0  0  1  0  0  0  0  0  0  0  0  0
   -0.9599   -0.8121   -2.7179 C   0  0  2  0  0  0  0  0  0  0  0  0
    0.4340   -0.4856   -3.1882 O   0  0  0  0  0  0  0  0  0  0  0  0
   -1.3117    0.7069   -2.2216 C   0  0  0  0  0  0  0  0  0  0  0  0
   -0.0717    1.0255   -1.6132 C   0  0  0  0  0  0  0  0  0  0  0  0
   -0.0310    2.1228   -1.0340 O   0  0  0  0  0  0  0  0  0  0  0  0
    0.3650   -0.1114   -0.5926 C   0  0  2  0  0  0  0  0  0  0  0  0
    1.7265   -0.5125   -1.4057 C   0  0  0  0  0  0  0  0  0  0  0  0
    2.3975   -1.6220   -0.7333 C   0  0  0  0  0  0  0  0  0  0  0  0
    2.9096   -1.0982    0.5968 C   0  0  0  0  0  0  0  0  0  0  0  0
    2.8828    0.4098    0.5114 C   0  0  0  0  0  0  0  0  0  0  0  0
    4.2640    0.9600    0.3280 C   0  0  0  0  0  0  0  0  0  0  0  0
    4.9956    0.4724    1.5731 C   0  0  0  0  0  0  0  0  0  0  0  0
    6.3433    0.0597    1.1461 C   0  0  0  0  0  0  0  0  0  0  0  0
    6.4500   -0.8633    0.2963 O   0  0  0  0  0  0  0  0  0  0  0  0
    7.4848    0.5808    1.7240 O   0  0  0  0  0  0  0  0  0  0  0  0
  1  2  1  0
  2  3  1  0
  3  4  1  0
  4  5  1  0
  6  5  1  1
  6  7  1  0
  6  8  1  0
  8  9  2  0
 10  9  1  1
 10 11  1  0
 11 12  1  6
 11 13  1  0
 13 14  1  0
 14 15  2  0
 14 16  1  0
 16 17  1  6
 17 18  1  0
 18 19  1  0
 19 20  1  0
 20 21  1  0
 21 22  1  0
 22 23  1  0
 23 24  2  0
 23 25  1  0
 16 10  1  0
M  END
>  <zinc_id>  (128) 
ZINC000003813088

>  <smiles>  (128) 
CCCCC[C@H](O)/C=C/[C@H]1[C@H](O)CC(=O)[C@@H]1CCCCCCC(=O)O

$$$$

     RDKit          3D

 24 25  0  0  0  0  0  0  0  0999 V2000
    4.4732    2.0676   -0.8449 N   0  0  0  0  0  0  0  0  0  0  0  0
    4.8834    1.0604    0.3377 C   0  0  1  0  0  0  0  0  0  0  0  0
    4.1088   -0.2154   -0.4261 C   0  0  0  0  0  0  0  0  0  0  0  0
    2.6718    0.0750   -0.1231 C   0  0  0  0  0  0  0  0  0  0  0  0
    2.2804    0.1003    1.1934 C   0  0  0  0  0  0  0  0  0  0  0  0
    0.9358    0.0364    1.5368 C   0  0  0  0  0  0  0  0  0  0  0  0
    0.4785   -0.1403    3.5943 I   0  0  0  0  0  0  0  0  0  0  0  0
   -0.0624   -0.0205    0.5689 C   0  0  0  0  0  0  0  0  0  0  0  0
   -1.3157   -0.3348    1.0223 O   0  0  0  0  0  0  0  0  0  0  0  0
   -2.4877   -0.3227    0.3084 C   0  0  0  0  0  0  0  0  0  0  0  0
   -3.2544   -1.4826    0.3804 C   0  0  0  0  0  0  0  0  0  0  0  0
   -4.4925   -1.5821   -0.2433 C   0  0  0  0  0  0  0  0  0  0  0  0
   -5.0189   -3.2833   -1.3886 I   0  0  0  0  0  0  0  0  0  0  0  0
   -5.0305   -0.3774   -0.6813 C   0  0  0  0  0  0  0  0  0  0  0  0
   -6.2850   -0.3779   -1.2821 O   0  0  0  0  0  0  0  0  0  0  0  0
   -4.4520    0.8306   -0.3207 C   0  0  0  0  0  0  0  0  0  0  0  0
   -5.4432    2.6247   -0.7902 I   0  0  0  0  0  0  0  0  0  0  0  0
   -3.2408    0.8458    0.3600 C   0  0  0  0  0  0  0  0  0  0  0  0
    0.3778   -0.2609   -0.7181 C   0  0  0  0  0  0  0  0  0  0  0  0
   -0.9809   -0.8882   -2.1709 I   0  0  0  0  0  0  0  0  0  0  0  0
    1.7147   -0.1696   -1.0802 C   0  0  0  0  0  0  0  0  0  0  0  0
    6.3017    0.6969   -0.4141 C   0  0  0  0  0  0  0  0  0  0  0  0
    7.0835    1.6943   -0.3422 O   0  0  0  0  0  0  0  0  0  0  0  0
    6.7545   -0.5766   -0.0584 O   0  0  0  0  0  0  0  0  0  0  0  0
  2  1  1  6
  2  3  1  0
  3  4  1  0
  4  5  2  0
  5  6  1  0
  6  7  1  0
  6  8  2  0
  8  9  1  0
  9 10  1  0
 10 11  2  0
 11 12  1  0
 12 13  1  0
 12 14  2  0
 14 15  1  0
 14 16  1  0
 16 17  1  0
 16 18  2  0
  8 19  1  0
 19 20  1  0
 19 21  2  0
  2 22  1  0
 22 23  2  0
 22 24  1  0
 21  4  1  0
 18 10  1  0
M  END
>  <zinc_id>  (129) 
ZINC000003830993

>  <smiles>  (129) 
N[C@@H](Cc1cc(I)c(Oc2cc(I)c(O)c(I)c2)c(I)c1)C(=O)O

$$$$

     RDKit          3D

 24 23  0  0  0  0  0  0  0  0999 V2000
    7.2656    2.3570   -1.6094 C   0  0  0  0  0  0  0  0  0  0  0  0
    6.8145    0.9896   -1.1827 C   0  0  0  0  0  0  0  0  0  0  0  0
    6.5254    1.0461    0.2817 C   0  0  0  0  0  0  0  0  0  0  0  0
    5.5332    1.8202    0.6820 C   0  0  0  0  0  0  0  0  0  0  0  0
    4.4472    2.3006   -0.1965 C   0  0  0  0  0  0  0  0  0  0  0  0
    3.9825    1.2805   -1.1647 C   0  0  0  0  0  0  0  0  0  0  0  0
    3.6763    0.0720   -0.6808 C   0  0  0  0  0  0  0  0  0  0  0  0
    3.2241   -0.1301    0.7262 C   0  0  0  0  0  0  0  0  0  0  0  0
    1.9324    0.5819    0.9878 C   0  0  0  0  0  0  0  0  0  0  0  0
    0.9586   -0.1690    1.5166 C   0  0  0  0  0  0  0  0  0  0  0  0
    0.6637   -1.4437    0.7851 C   0  0  0  0  0  0  0  0  0  0  0  0
    0.5823   -1.1032   -0.6654 C   0  0  0  0  0  0  0  0  0  0  0  0
   -0.4220   -1.5681   -1.3865 C   0  0  0  0  0  0  0  0  0  0  0  0
   -0.9133   -2.9410   -1.0829 C   0  0  0  0  0  0  0  0  0  0  0  0
   -1.6610   -2.9373    0.2169 C   0  0  0  0  0  0  0  0  0  0  0  0
   -2.9091   -2.4782    0.2540 C   0  0  0  0  0  0  0  0  0  0  0  0
   -3.7348   -2.7233   -0.9734 C   0  0  0  0  0  0  0  0  0  0  0  0
   -5.0960   -2.0789   -0.8736 C   0  0  0  0  0  0  0  0  0  0  0  0
   -5.2285   -1.1710    0.3174 C   0  0  0  0  0  0  0  0  0  0  0  0
   -5.0585    0.2710   -0.0495 C   0  0  0  0  0  0  0  0  0  0  0  0
   -3.9469    0.6154   -0.5426 O   0  0  0  0  0  0  0  0  0  0  0  0
   -5.7949    1.2747    0.5867 O   0  0  0  0  0  0  0  0  0  0  0  0
   -5.2195    2.4521    1.0999 C   0  0  0  0  0  0  0  0  0  0  0  0
   -5.6215    3.6825    0.3369 C   0  0  0  0  0  0  0  0  0  0  0  0
  1  2  1  0
  2  3  1  0
  3  4  2  0
  4  5  1  0
  5  6  1  0
  6  7  2  0
  7  8  1  0
  8  9  1  0
  9 10  2  0
 10 11  1  0
 11 12  1  0
 12 13  2  0
 13 14  1  0
 14 15  1  0
 15 16  2  0
 16 17  1  0
 17 18  1  0
 18 19  1  0
 19 20  1  0
 20 21  2  0
 20 22  1  0
 22 23  1  0
 23 24  1  0
M  END
>  <zinc_id>  (130) 
ZINC000003785276

>  <smiles>  (130) 
CC/C=C\C/C=C\C/C=C\C/C=C\C/C=C\CCCC(=O)OCC

$$$$

     RDKit          3D

  6  5  0  0  0  0  0  0  0  0999 V2000
   -1.2189    0.9036    0.8006 C   0  0  0  0  0  0  0  0  0  0  0  0
   -0.7926    0.1770   -0.6272 C   0  0  2  0  0  0  0  0  0  0  0  0
   -1.2216   -1.1906   -0.1015 O   0  0  0  0  0  0  0  0  0  0  0  0
    0.7419    0.0261   -0.1310 C   0  0  0  0  0  0  0  0  0  0  0  0
    1.3213    1.0193   -0.5672 O   0  0  0  0  0  0  0  0  0  0  0  0
    1.1699   -0.9353    0.6264 O   0  0  0  0  0  0  0  0  0  0  0  0
  2  1  1  1
  2  3  1  0
  2  4  1  0
  4  5  2  0
  4  6  1  0
M  END
>  <zinc_id>  (131) 
ZINC000004658560

>  <smiles>  (131) 
C[C@H](O)C(=O)O

$$$$

     RDKit          3D

 21 21  0  0  0  0  0  0  0  0999 V2000
    0.8658   -2.7506   -1.0112 C   0  0  0  0  0  0  0  0  0  0  0  0
    0.3996   -1.3613   -0.7370 C   0  0  0  0  0  0  0  0  0  0  0  0
   -0.9025   -1.1727   -0.0906 C   0  0  0  0  0  0  0  0  0  0  0  0
   -2.0150   -0.9411   -0.7638 C   0  0  0  0  0  0  0  0  0  0  0  0
   -3.1114   -0.2499   -0.1086 C   0  0  0  0  0  0  0  0  0  0  0  0
   -3.7356    0.7624   -0.7080 C   0  0  0  0  0  0  0  0  0  0  0  0
   -3.5762    0.9636   -2.1752 C   0  0  0  0  0  0  0  0  0  0  0  0
   -4.2067    1.9493    0.0708 C   0  0  0  0  0  0  0  0  0  0  0  0
   -3.8208    1.6952    1.5178 C   0  0  0  0  0  0  0  0  0  0  0  0
   -4.4194    0.3558    1.9016 C   0  0  0  0  0  0  0  0  0  0  0  0
   -3.6027   -0.7212    1.2196 C   0  0  0  0  0  0  0  0  0  0  0  0
   -4.4634   -1.9612    1.0118 C   0  0  0  0  0  0  0  0  0  0  0  0
   -2.4862   -1.1076    2.1442 C   0  0  0  0  0  0  0  0  0  0  0  0
    1.3385   -0.4260   -0.7423 C   0  0  0  0  0  0  0  0  0  0  0  0
    2.7426   -0.7177   -0.4209 C   0  0  0  0  0  0  0  0  0  0  0  0
    3.3712   -0.2092    0.6087 C   0  0  0  0  0  0  0  0  0  0  0  0
    4.5897    0.5935    0.5290 C   0  0  0  0  0  0  0  0  0  0  0  0
    4.5609    1.8712    1.3092 C   0  0  0  0  0  0  0  0  0  0  0  0
    5.5346    0.4070   -0.3642 C   0  0  0  0  0  0  0  0  0  0  0  0
    6.2637    1.6117   -0.8582 C   0  0  0  0  0  0  0  0  0  0  0  0
    6.6732    1.4087   -2.1856 O   0  0  0  0  0  0  0  0  0  0  0  0
  1  2  1  0
  2  3  1  0
  3  4  2  0
  4  5  1  0
  5  6  2  0
  6  7  1  0
  6  8  1  0
  8  9  1  0
  9 10  1  0
 10 11  1  0
 11 12  1  0
 11 13  1  0
  2 14  2  0
 14 15  1  0
 15 16  2  0
 16 17  1  0
 17 18  1  0
 17 19  2  0
 19 20  1  0
 20 21  1  0
 11  5  1  0
M  END
>  <zinc_id>  (132) 
ZINC000003831417

>  <smiles>  (132) 
CC1=C(/C=C/C(C)=C/C=C/C(C)=C/CO)C(C)(C)CCC1

$$$$

     RDKit          3D

 14 13  0  0  0  0  0  0  0  0999 V2000
    3.9722   -1.0579   -0.3087 N   0  0  0  0  0  0  0  0  0  0  0  0
    3.4286   -0.1033    0.6433 C   0  0  0  0  0  0  0  0  0  0  0  0
    2.2339    0.5379   -0.0544 C   0  0  0  0  0  0  0  0  0  0  0  0
    0.9793    0.1223    0.6743 C   0  0  0  0  0  0  0  0  0  0  0  0
   -0.2096    0.0738   -0.2739 C   0  0  0  0  0  0  0  0  0  0  0  0
    0.2833    0.1138   -1.5656 O   0  0  0  0  0  0  0  0  0  0  0  0
   -1.0826   -1.4677    0.0353 P   0  0  0  0  0  0  0  0  0  0  0  0
   -0.0347   -2.5079    0.4069 O   0  0  0  0  0  0  0  0  0  0  0  0
   -1.8374   -2.0528   -1.3728 O   0  0  0  0  0  0  0  0  0  0  0  0
   -2.1588   -1.3701    1.3198 O   0  0  0  0  0  0  0  0  0  0  0  0
   -1.2063    1.5391    0.0223 P   0  0  0  0  0  0  0  0  0  0  0  0
   -2.1255    1.8536   -1.1480 O   0  0  0  0  0  0  0  0  0  0  0  0
   -2.1005    1.4616    1.4420 O   0  0  0  0  0  0  0  0  0  0  0  0
   -0.1419    2.8575    0.1796 O   0  0  0  0  0  0  0  0  0  0  0  0
  1  2  1  0
  2  3  1  0
  3  4  1  0
  4  5  1  0
  5  6  1  0
  5  7  1  0
  7  8  2  0
  7  9  1  0
  7 10  1  0
  5 11  1  0
 11 12  2  0
 11 13  1  0
 11 14  1  0
M  END
>  <zinc_id>  (133) 
ZINC000003801919

>  <smiles>  (133) 
NCCCC(O)(P(=O)(O)O)P(=O)(O)O

$$$$

     RDKit          3D

  6  5  0  0  0  0  0  0  0  0999 V2000
   -1.3567   -1.1601    0.2128 C   0  0  0  0  0  0  0  0  0  0  0  0
   -0.6836    0.3215    0.6247 C   0  0  2  0  0  0  0  0  0  0  0  0
   -1.3112    1.0017   -0.6895 N   0  0  0  0  0  0  0  0  0  0  0  0
    0.7104    0.0473   -0.2001 C   0  0  0  0  0  0  0  0  0  0  0  0
    1.0352   -1.0952   -0.4275 O   0  0  0  0  0  0  0  0  0  0  0  0
    1.6059    0.8848    0.4795 O   0  0  0  0  0  0  0  0  0  0  0  0
  2  1  1  6
  2  3  1  0
  2  4  1  0
  4  5  2  0
  4  6  1  0
M  END
>  <zinc_id>  (134) 
ZINC000004658553

>  <smiles>  (134) 
C[C@H](N)C(=O)O

$$$$

     RDKit          3D

 11 10  0  0  0  0  0  0  0  0999 V2000
    2.0367    0.2672   -0.0383 C   0  0  0  0  0  0  0  0  0  0  0  0
    2.0882    0.2242   -0.0647 N   0  0  0  0  0  0  0  0  0  0  0  0
    2.5545    0.8574   -1.2521 C   0  0  0  0  0  0  0  0  0  0  0  0
    1.9517    0.9865    1.1169 C   0  0  0  0  0  0  0  0  0  0  0  0
    1.2006   -0.8574   -0.2994 C   0  0  0  0  0  0  0  0  0  0  0  0
   -0.0616   -0.2537   -1.1765 C   0  0  2  0  0  0  0  0  0  0  0  0
   -0.2513    0.9020   -0.2059 O   0  0  0  0  0  0  0  0  0  0  0  0
   -1.1250   -1.2089   -0.3531 C   0  0  0  0  0  0  0  0  0  0  0  0
   -2.4366   -0.5369   -0.4674 C   0  0  0  0  0  0  0  0  0  0  0  0
   -2.5671    0.7193   -0.5939 O   0  0  0  0  0  0  0  0  0  0  0  0
   -3.3900   -1.0997    0.3908 O   0  0  0  0  0  0  0  0  0  0  0  0
  1  2  1  0
  2  3  1  0
  2  4  1  0
  2  5  1  0
  6  5  1  1
  6  7  1  0
  6  8  1  0
  8  9  1  0
  9 10  2  0
  9 11  1  0
M  CHG  1   2   1
M  END
>  <zinc_id>  (135) 
ZINC000003079340

>  <smiles>  (135) 
C[N+](C)(C)C[C@H](O)CC(=O)O

$$$$

     RDKit          3D

 15 16  0  0  0  0  0  0  0  0999 V2000
   -2.6572   -2.2448    0.6185 N   0  0  0  0  0  0  0  0  0  0  0  0
   -2.2742   -0.7297    0.8293 C   0  0  1  0  0  0  0  0  0  0  0  0
   -1.1143   -0.7994   -0.3390 C   0  0  0  0  0  0  0  0  0  0  0  0
   -0.0520    0.1158    0.1213 C   0  0  0  0  0  0  0  0  0  0  0  0
   -0.2063    1.1461    1.0102 C   0  0  0  0  0  0  0  0  0  0  0  0
    0.9395    1.8207    1.0948 N   0  0  0  0  0  0  0  0  0  0  0  0
    1.9076    1.0276    0.6277 C   0  0  0  0  0  0  0  0  0  0  0  0
    3.2831    1.1594    0.5627 C   0  0  0  0  0  0  0  0  0  0  0  0
    4.0668    0.2299   -0.0655 C   0  0  0  0  0  0  0  0  0  0  0  0
    3.4887   -0.7529   -0.8256 C   0  0  0  0  0  0  0  0  0  0  0  0
    2.1154   -0.9222   -0.6927 C   0  0  0  0  0  0  0  0  0  0  0  0
    1.3150   -0.0621    0.0046 C   0  0  0  0  0  0  0  0  0  0  0  0
   -3.3689   -0.1534   -0.1982 C   0  0  0  0  0  0  0  0  0  0  0  0
   -3.3182    1.1118   -0.2699 O   0  0  0  0  0  0  0  0  0  0  0  0
   -4.1250   -0.9467   -0.9637 O   0  0  0  0  0  0  0  0  0  0  0  0
  2  1  1  6
  2  3  1  0
  3  4  1  0
  4  5  2  0
  5  6  1  0
  6  7  1  0
  7  8  2  0
  8  9  1  0
  9 10  2  0
 10 11  1  0
 11 12  2  0
  2 13  1  0
 13 14  2  0
 13 15  1  0
 12  4  1  0
 12  7  1  0
M  END
>  <zinc_id>  (136) 
ZINC000000083315

>  <smiles>  (136) 
N[C@@H](Cc1c[nH]c2ccccc12)C(=O)O

$$$$

     RDKit          3D

  8  8  0  0  0  0  0  0  0  0999 V2000
    2.9595   -0.6779    0.3714 N   0  0  0  0  0  0  0  0  0  0  0  0
    2.2072    0.5441    0.2879 C   0  0  0  0  0  0  0  0  0  0  0  0
    1.1585    0.5108   -0.8064 C   0  0  0  0  0  0  0  0  0  0  0  0
   -0.1915    0.2307   -0.2793 C   0  0  0  0  0  0  0  0  0  0  0  0
   -1.0761    0.9559    0.4584 C   0  0  0  0  0  0  0  0  0  0  0  0
   -2.2703    0.3356    0.3606 N   0  0  0  0  0  0  0  0  0  0  0  0
   -1.9595   -0.9694    0.1702 C   0  0  0  0  0  0  0  0  0  0  0  0
   -0.8278   -0.9298   -0.5629 N   0  0  0  0  0  0  0  0  0  0  0  0
  1  2  1  0
  2  3  1  0
  3  4  1  0
  4  5  2  0
  5  6  1  0
  6  7  2  0
  7  8  1  0
  8  4  1  0
M  END
>  <zinc_id>  (137) 
ZINC000000388081

>  <smiles>  (137) 
NCCc1cnc[nH]1

$$$$

     RDKit          3D

 10 10  0  0  0  0  0  0  0  0999 V2000
   -3.4096   -0.4699   -0.5453 O   0  0  0  0  0  0  0  0  0  0  0  0
   -2.2379    0.0136   -0.5095 C   0  0  0  0  0  0  0  0  0  0  0  0
   -2.0434    1.3886   -0.5683 O   0  0  0  0  0  0  0  0  0  0  0  0
   -1.1245   -0.9302   -0.6933 C   0  0  0  0  0  0  0  0  0  0  0  0
    0.1628   -0.4429   -0.1776 C   0  0  0  0  0  0  0  0  0  0  0  0
    0.4478    0.9003    0.0345 C   0  0  0  0  0  0  0  0  0  0  0  0
    1.7642    1.3392    0.0199 C   0  0  0  0  0  0  0  0  0  0  0  0
    2.7085    0.4148    0.4175 C   0  0  0  0  0  0  0  0  0  0  0  0
    2.4725   -0.9352    0.2405 C   0  0  0  0  0  0  0  0  0  0  0  0
    1.2597   -1.2783   -0.3437 C   0  0  0  0  0  0  0  0  0  0  0  0
  1  2  2  0
  2  3  1  0
  2  4  1  0
  4  5  1  0
  5  6  2  0
  6  7  1  0
  7  8  2  0
  8  9  1  0
  9 10  2  0
 10  5  1  0
M  END
>  <zinc_id>  (138) 
ZINC000000388462

>  <smiles>  (138) 
O=C(O)Cc1ccccc1

$$$$

     RDKit          3D

 13 13  0  0  0  0  0  0  0  0999 V2000
    2.8137   -1.7722   -0.5437 N   0  0  0  0  0  0  0  0  0  0  0  0
    1.7969   -0.5445   -0.6820 C   0  0  1  0  0  0  0  0  0  0  0  0
    0.9584   -1.0288    0.6780 C   0  0  0  0  0  0  0  0  0  0  0  0
   -0.4310   -0.5509    0.3911 C   0  0  0  0  0  0  0  0  0  0  0  0
   -0.7127    0.7762    0.6941 C   0  0  0  0  0  0  0  0  0  0  0  0
   -1.8830    1.2697    0.1304 C   0  0  0  0  0  0  0  0  0  0  0  0
   -3.0102    0.4926    0.3460 C   0  0  0  0  0  0  0  0  0  0  0  0
   -4.2406    1.1000    0.2465 O   0  0  0  0  0  0  0  0  0  0  0  0
   -2.8111   -0.8767    0.3380 C   0  0  0  0  0  0  0  0  0  0  0  0
   -1.5273   -1.4020    0.4208 C   0  0  0  0  0  0  0  0  0  0  0  0
    2.7663    0.4355    0.2072 C   0  0  0  0  0  0  0  0  0  0  0  0
    2.2252    1.5750    0.3676 O   0  0  0  0  0  0  0  0  0  0  0  0
    4.0554    0.5262   -0.3369 O   0  0  0  0  0  0  0  0  0  0  0  0
  2  1  1  1
  2  3  1  0
  3  4  1  0
  4  5  2  0
  5  6  1  0
  6  7  2  0
  7  8  1  0
  7  9  1  0
  9 10  2  0
  2 11  1  0
 11 12  2  0
 11 13  1  0
 10  4  1  0
M  END
>  <zinc_id>  (139) 
ZINC000000266964

>  <smiles>  (139) 
N[C@@H](Cc1ccc(O)cc1)C(=O)O

$$$$

     RDKit          3D

  8  7  0  0  0  0  0  0  0  0999 V2000
    0.1863    0.0839    1.4668 N   0  0  0  0  0  0  0  0  0  0  0  0
    0.0335   -0.2499    0.0514 C   0  0  0  0  0  0  0  0  0  0  0  0
    1.2754   -0.9801   -0.4470 C   0  0  0  0  0  0  0  0  0  0  0  0
    2.4305   -0.2591   -0.1293 O   0  0  0  0  0  0  0  0  0  0  0  0
   -1.1193   -1.2347   -0.1012 C   0  0  0  0  0  0  0  0  0  0  0  0
   -2.2909   -0.4970   -0.0594 O   0  0  0  0  0  0  0  0  0  0  0  0
   -0.2167    0.9939   -0.7825 C   0  0  0  0  0  0  0  0  0  0  0  0
   -0.2989    2.1429    0.0013 O   0  0  0  0  0  0  0  0  0  0  0  0
  1  2  1  0
  2  3  1  0
  3  4  1  0
  2  5  1  0
  5  6  1  0
  2  7  1  0
  7  8  1  0
M  END
>  <zinc_id>  (140) 
ZINC000000896695

>  <smiles>  (140) 
NC(CO)(CO)CO

$$$$

     RDKit          3D

 22 25  0  0  0  0  0  0  0  0999 V2000
   -3.5326    0.8770    0.3107 C   0  0  0  0  0  0  0  0  0  0  0  0
   -3.1559    0.1662    0.2088 N   0  0  0  0  0  0  0  0  0  0  0  0
   -3.5358   -0.8602   -0.9986 C   0  0  2  0  0  0  0  0  0  0  0  0
   -2.4078    0.2746   -1.3864 C   0  0  0  0  0  0  0  0  0  0  0  0
   -1.2961   -0.6385   -0.4589 C   0  0  1  0  0  0  0  0  0  0  0  0
   -0.3938    0.5242   -0.0048 O   0  0  0  0  0  0  0  0  0  0  0  0
    0.9151    0.1477   -0.3450 C   0  0  0  0  0  0  0  0  0  0  0  0
    1.2494   -0.2775   -1.4873 O   0  0  0  0  0  0  0  0  0  0  0  0
    1.9248   -0.2899    0.8364 C   0  0  2  0  0  0  0  0  0  0  0  0
    1.5672    1.0205    1.7607 C   0  0  0  0  0  0  0  0  0  0  0  0
    1.6493    2.1131    0.9230 O   0  0  0  0  0  0  0  0  0  0  0  0
    3.1902    0.4224    0.1250 C   0  0  0  0  0  0  0  0  0  0  0  0
    4.0303    1.1402    0.9141 C   0  0  0  0  0  0  0  0  0  0  0  0
    5.4070    1.1406    0.7284 C   0  0  0  0  0  0  0  0  0  0  0  0
    5.9610   -0.0374    0.2642 C   0  0  0  0  0  0  0  0  0  0  0  0
    5.1829   -0.7715   -0.6023 C   0  0  0  0  0  0  0  0  0  0  0  0
    3.8106   -0.5528   -0.6511 C   0  0  0  0  0  0  0  0  0  0  0  0
   -1.9850   -0.8654    1.0943 C   0  0  0  0  0  0  0  0  0  0  0  0
   -3.2976   -1.4116    0.3264 C   0  0  1  0  0  0  0  0  0  0  0  0
   -4.6785   -0.6932    1.0863 C   0  0  2  0  0  0  0  0  0  0  0  0
   -5.6233   -1.4349   -0.0332 O   0  0  0  0  0  0  0  0  0  0  0  0
   -4.9813    0.0063   -0.5090 C   0  0  2  0  0  0  0  0  0  0  0  0
  1  2  1  0
  2  3  1  0
  3  4  1  6
  4  5  1  0
  5  6  1  1
  6  7  1  0
  7  8  2  0
  9  7  1  6
  9 10  1  0
 10 11  1  0
  9 12  1  0
 12 13  2  0
 13 14  1  0
 14 15  2  0
 15 16  1  0
 16 17  2  0
  5 18  1  0
 19 18  1  1
 19 20  1  0
 20 21  1  6
 22 21  1  6
 19  2  1  0
 22 20  1  0
 22  3  1  0
 17 12  1  0
M  END
>  <zinc_id>  (141) 
ZINC000100037020

>  <smiles>  (141) 
CN1[C@H]2C[C@H](OC(=O)[C@H](CO)c3ccccc3)C[C@@H]1[C@H]1O[C@@H]21

$$$$

     RDKit          3D

 19 20  0  0  0  0  0  0  0  0999 V2000
    3.0856    2.2836   -0.2179 O   0  0  0  0  0  0  0  0  0  0  0  0
    3.3076    2.0813    0.4641 C   0  0  0  0  0  0  0  0  0  0  0  0
    2.3772    0.7859    0.9092 C   0  0  1  0  0  0  0  0  0  0  0  0
    1.4100    0.9798   -0.2578 O   0  0  0  0  0  0  0  0  0  0  0  0
    0.4940   -0.1433    0.2852 C   0  0  1  0  0  0  0  0  0  0  0  0
   -0.6186    0.1547   -0.7787 O   0  0  0  0  0  0  0  0  0  0  0  0
   -1.8225    0.4189   -0.1217 C   0  0  0  0  0  0  0  0  0  0  0  0
   -2.4457   -0.6161    0.5616 C   0  0  0  0  0  0  0  0  0  0  0  0
   -3.8145   -0.6844    0.6002 C   0  0  0  0  0  0  0  0  0  0  0  0
   -4.5965    0.3065    0.0302 C   0  0  0  0  0  0  0  0  0  0  0  0
   -5.7568    0.0198   -0.6944 O   0  0  0  0  0  0  0  0  0  0  0  0
   -3.9434    1.5236   -0.1397 C   0  0  0  0  0  0  0  0  0  0  0  0
   -2.5570    1.5568   -0.2380 C   0  0  0  0  0  0  0  0  0  0  0  0
    1.2465   -1.3110   -0.7724 C   0  0  2  0  0  0  0  0  0  0  0  0
    0.3451   -2.3985   -0.2603 O   0  0  0  0  0  0  0  0  0  0  0  0
    2.4271   -1.6507    0.4275 C   0  0  1  0  0  0  0  0  0  0  0  0
    3.2037   -2.5290   -0.5264 O   0  0  0  0  0  0  0  0  0  0  0  0
    3.3726   -0.2837   -0.0215 C   0  0  2  0  0  0  0  0  0  0  0  0
    4.2856   -0.4941    1.1561 O   0  0  0  0  0  0  0  0  0  0  0  0
  1  2  1  0
  3  2  1  6
  3  4  1  0
  4  5  1  0
  5  6  1  6
  6  7  1  0
  7  8  2  0
  8  9  1  0
  9 10  2  0
 10 11  1  0
 10 12  1  0
 12 13  2  0
  5 14  1  0
 14 15  1  1
 14 16  1  0
 16 17  1  6
 16 18  1  0
 18 19  1  1
 18  3  1  0
 13  7  1  0
M  END
>  <zinc_id>  (142) 
ZINC000000518554

>  <smiles>  (142) 
OC[C@H]1O[C@@H](Oc2ccc(O)cc2)[C@H](O)[C@@H](O)[C@@H]1O

$$$$
