REMARK  6 active torsions:
REMARK  status: ('A' for Active; 'I' for Inactive)
REMARK    1  A    between atoms: C_2  and  C_3 
REMARK    2  A    between atoms: C_2  and  C_8 
REMARK    3  A    between atoms: C_3  and  C_4 
REMARK    4  A    between atoms: C_4  and  C_5 
REMARK    5  A    between atoms: C_17  and  O_18 
REMARK    6  A    between atoms: C_25  and  O_26 
ROOT
HETATM    1  C   UNL     1       2.251   0.524   0.589  1.00  0.00     0.000 C 
HETATM    2  C   UNL     1       2.650  -1.000   0.197  1.00  0.00     0.006 C 
HETATM    3  C   UNL     1       1.578  -1.378  -0.792  1.00  0.00     0.006 C 
HETATM    4  C   UNL     1       0.580  -0.102  -0.760  1.00  0.00     0.001 C 
HETATM    5  C   UNL     1      -0.810  -1.034  -0.618  1.00  0.00    -0.005 C 
HETATM    6  C   UNL     1      -1.139  -1.055  -2.185  1.00  0.00     0.006 C 
HETATM    7  C   UNL     1      -2.157  -0.061  -2.559  1.00  0.00     0.006 C 
HETATM    8  C   UNL     1      -3.593  -0.450  -1.894  1.00  0.00    -0.004 C 
HETATM    9  C   UNL     1      -4.071   1.108  -1.748  1.00  0.00     0.037 C 
HETATM   10  C   UNL     1      -5.681   0.823  -1.507  1.00  0.00     0.118 C 
HETATM   11  C   UNL     1      -5.448  -0.236  -0.266  1.00  0.00     0.032 C 
HETATM   12  C   UNL     1      -4.163   0.171   0.429  1.00  0.00     0.012 C 
HETATM   13  C   UNL     1      -3.099  -0.517  -0.340  1.00  0.00    -0.036 C 
HETATM   14  C   UNL     1      -2.915  -1.907   0.042  1.00  0.00     0.016 C 
HETATM   15  C   UNL     1      -1.750   0.348  -0.369  1.00  0.00     0.001 C 
HETATM   16  C   UNL     1      -1.518   0.367   1.224  1.00  0.00     0.038 C 
HETATM   17  C   UNL     1      -0.107   1.230   1.367  1.00  0.00     0.127 C 
HETATM   18  C   UNL     1       0.764  -0.017   0.830  1.00  0.00    -0.010 C 
HETATM   19  C   UNL     1       0.644  -1.206   1.538  1.00  0.00     0.018 C 
ENDROOT
BRANCH   1  20
HETATM   20  C   UNL     1       2.694   0.418   2.223  1.00  0.00    -0.013 C 
HETATM   21  C   UNL     1       3.295   1.926   2.194  1.00  0.00     0.010 C 
BRANCH  20  22
HETATM   22  C   UNL     1       4.141  -0.264   1.984  1.00  0.00     0.015 C 
BRANCH  22  23
HETATM   23  C   UNL     1       4.830   0.466   0.888  1.00  0.00     0.113 C 
BRANCH  23  24
HETATM   24  C   UNL     1       5.905  -0.295   0.255  1.00  0.00     0.172 C 
HETATM   25  O   UNL     1       5.933  -0.473  -1.004  1.00  0.00    -0.648 OA
HETATM   26  O   UNL     1       7.191  -0.158   0.794  1.00  0.00    -0.648 OA
ENDBRANCH  23  24
ENDBRANCH  22  23
ENDBRANCH  20  22
ENDBRANCH   1  20
BRANCH  17  27
HETATM   27  O   UNL     1      -0.179   1.960   0.029  1.00  0.00    -0.395 OA
HETATM   28  H   UNL     1      -0.408   1.330  -0.671  1.00  0.00     0.210 HD
ENDBRANCH  17  27
BRANCH  10  29
HETATM   29  O   UNL     1      -5.825   1.984  -0.539  1.00  0.00    -0.396 OA
HETATM   30  H   UNL     1      -5.106   1.954   0.111  1.00  0.00     0.210 HD
ENDBRANCH  10  29
TORSDOF 6
