REMARK  6 active torsions:
REMARK  status: ('A' for Active; 'I' for Inactive)
REMARK    1  A    between atoms: C_3  and  C_4 
REMARK    2  A    between atoms: C_4  and  C_5 
REMARK    3  A    between atoms: C_5  and  O_6 
REMARK    4  A    between atoms: N_9  and  C_10 
REMARK    5  A    between atoms: C_10  and  C_11 
REMARK    6  A    between atoms: C_17  and  N_18 
ROOT
HETATM    1  C   UNL     1      -0.052  -0.480   0.576  1.00  0.00     0.172 C 
ENDROOT
BRANCH   1   2
HETATM    2  N   UNL     1       0.705  -0.157  -0.631  1.00  0.00    -0.349 N 
HETATM    3  C   UNL     1       1.839  -0.824  -0.941  1.00  0.00     0.021 C 
HETATM    4  C   UNL     1       2.071  -2.261  -0.590  1.00  0.00     0.069 C 
HETATM    5  C   UNL     1       2.828   0.058  -1.356  1.00  0.00     0.008 C 
HETATM    6  S   UNL     1       1.877   1.267  -2.123  1.00  0.00    -0.087 SA
HETATM    7  C   UNL     1       0.338   0.648  -1.662  1.00  0.00     0.141 C 
BRANCH   5   8
HETATM    8  C   UNL     1       4.316  -0.109  -1.282  1.00  0.00     0.074 C 
BRANCH   8   9
HETATM    9  C   UNL     1       4.713   0.386   0.106  1.00  0.00     0.169 C 
BRANCH   9  10
HETATM   10  O   UNL     1       4.857  -0.693   0.989  1.00  0.00    -0.401 OA
HETATM   11  H   UNL     1       4.014  -1.168   1.060  1.00  0.00     0.209 HD
ENDBRANCH   9  10
ENDBRANCH   8   9
ENDBRANCH   5   8
ENDBRANCH   1   2
BRANCH   1  12
HETATM   12  C   UNL     1      -1.428  -0.008   0.547  1.00  0.00     0.023 C 
HETATM   13  C   UNL     1      -1.906   1.060  -0.201  1.00  0.00     0.131 C 
HETATM   14  N   UNL     1      -3.248   1.258  -0.189  1.00  0.00    -0.245 NA
HETATM   15  C   UNL     1      -4.064   0.475   0.547  1.00  0.00     0.124 C 
HETATM   16  C   UNL     1      -5.465   0.155   0.142  1.00  0.00     0.093 C 
HETATM   17  N   UNL     1      -3.543  -0.173   1.612  1.00  0.00    -0.216 NA
HETATM   18  C   UNL     1      -2.200  -0.335   1.656  1.00  0.00     0.132 C 
BRANCH  18  19
HETATM   19  N   UNL     1      -1.640  -0.985   2.800  1.00  0.00    -0.383 N 
HETATM   20  H   UNL     1      -2.212  -1.204   3.570  1.00  0.00     0.157 HD
HETATM   21  H   UNL     1      -0.682  -1.212   2.818  1.00  0.00     0.157 HD
ENDBRANCH  18  19
ENDBRANCH   1  12
TORSDOF 6
