REMARK  8 active torsions:
REMARK  status: ('A' for Active; 'I' for Inactive)
REMARK    1  A    between atoms: C_2  and  N_3 
REMARK    2  A    between atoms: C_2  and  C_16 
REMARK    3  A    between atoms: N_3  and  C_4 
REMARK    4  A    between atoms: C_4  and  C_5 
REMARK    5  A    between atoms: C_4  and  C_13 
REMARK    6  A    between atoms: C_5  and  C_6 
REMARK    7  A    between atoms: C_6  and  C_7 
REMARK       I    between atoms: C_16  and  N_20 
REMARK    8  A    between atoms: CA_24  and  C_25 
ROOT
HETATM    1  N   UNK A   1       0.282  -2.486  -0.220  1.00  0.00    -0.049 N 
HETATM    2  H   UNK A   1       0.367  -2.503  -1.237  1.00  0.00     0.279 HD
HETATM    3  H   UNK A   1       0.911  -3.230   0.083  1.00  0.00     0.279 HD
ENDROOT
BRANCH   1   4
HETATM    4  C   UNK A   1      -1.244  -2.642   0.258  1.00  0.00     0.268 C 
HETATM    5  C   UNK A   1      -0.963  -1.985   1.777  1.00  0.00     0.050 C 
BRANCH   4   6
HETATM    6  C   UNK A   1      -1.661  -1.214  -0.434  1.00  0.00     0.231 C 
HETATM    7  O   UNK A   1      -1.996  -1.578  -1.609  1.00  0.00    -0.277 OA
ATOM      8  N   PRO A   2      -2.502  -0.399   0.348  1.00  0.00    -0.237 NA
ATOM      9  CD  PRO A   2      -3.606  -0.769   1.168  1.00  0.00     0.099 C 
ATOM     10  CA  PRO A   2      -3.049   0.826  -0.527  1.00  0.00     0.168 C 
ATOM     11  CG  PRO A   2      -4.707  -0.830   0.172  1.00  0.00     0.017 C 
ATOM     12  CB  PRO A   2      -4.375  -0.064  -1.037  1.00  0.00     0.032 C 
BRANCH  10  13
ATOM     13  C   PRO A   2      -3.817   1.510   0.758  1.00  0.00     0.307 C 
ATOM     14  O   PRO A   2      -3.227   2.630   0.903  1.00  0.00    -0.261 OA
ATOM     15  OXT PRO A   2      -5.181   1.630   0.657  1.00  0.00    -0.149 OA
ENDBRANCH  10  13
ENDBRANCH   4   6
ENDBRANCH   1   4
BRANCH   1  16
HETATM   16  C   UNK A   1       0.597  -1.034   0.383  1.00  0.00     0.287 C 
BRANCH  16  17
HETATM   17  C   UNK A   1       2.236  -1.371   0.444  1.00  0.00     0.049 C 
BRANCH  17  18
HETATM   18  C   UNK A   1       2.788  -0.457   1.495  1.00  0.00     0.041 C 
BRANCH  18  19
HETATM   19  C   UNK A   1       3.967   0.321   0.993  1.00  0.00    -0.058 C 
HETATM   20  C   UNK A   1       4.215   0.512  -0.355  1.00  0.00     0.007 C 
HETATM   21  C   UNK A   1       4.518   1.772  -0.864  1.00  0.00     0.001 C 
HETATM   22  C   UNK A   1       5.059   2.656   0.064  1.00  0.00     0.000 C 
HETATM   23  C   UNK A   1       5.314   2.217   1.358  1.00  0.00     0.001 C 
HETATM   24  C   UNK A   1       4.724   1.063   1.863  1.00  0.00     0.007 C 
ENDBRANCH  18  19
ENDBRANCH  17  18
ENDBRANCH  16  17
BRANCH  16  25
HETATM   25  C   UNK A   1       0.753  -0.337  -1.094  1.00  0.00     0.204 C 
HETATM   26  O   UNK A   1       1.349  -0.965  -1.947  1.00  0.00    -0.646 OA
HETATM   27  O   UNK A   1       0.524   0.994  -0.948  1.00  0.00    -0.646 OA
ENDBRANCH  16  25
ENDBRANCH   1  16
TORSDOF 8
