REMARK  1 active torsions:
REMARK  status: ('A' for Active; 'I' for Inactive)
REMARK    1  A    between atoms: C_11  and  O_12 
ROOT
HETATM    1  C   UNL     1      -2.415  -0.387   1.606  1.00  0.00     0.024 C 
HETATM    2  C   UNL     1      -2.602  -0.172   0.169  1.00  0.00     0.021 C 
HETATM    3  C   UNL     1      -2.203  -1.318  -0.658  1.00  0.00     0.018 C 
HETATM    4  C   UNL     1      -0.864  -1.657   0.027  1.00  0.00     0.007 C 
HETATM    5  C   UNL     1       0.085  -0.539  -0.671  1.00  0.00     0.003 C 
HETATM    6  C   UNL     1      -0.336   0.787   0.289  1.00  0.00    -0.001 C 
HETATM    7  C   UNL     1       0.403   1.799  -0.726  1.00  0.00     0.033 C 
HETATM    8  C   UNL     1       1.668   1.179  -1.225  1.00  0.00    -0.023 C 
HETATM    9  C   UNL     1       2.284   0.223  -0.553  1.00  0.00    -0.072 C 
HETATM   10  C   UNL     1       3.441  -0.495  -1.133  1.00  0.00     0.066 C 
HETATM   11  C   UNL     1       4.411  -0.963   0.113  1.00  0.00     0.122 C 
HETATM   12  C   UNL     1       3.255  -1.758   0.979  1.00  0.00     0.033 C 
HETATM   13  C   UNL     1       2.058  -2.042   0.076  1.00  0.00     0.016 C 
HETATM   14  C   UNL     1       1.398  -0.724   0.247  1.00  0.00    -0.017 C 
HETATM   15  C   UNL     1       1.325  -0.235   1.592  1.00  0.00     0.020 C 
HETATM   16  C   UNL     1      -1.833   1.138  -0.366  1.00  0.00     0.006 C 
HETATM   17  C   UNL     1      -2.286   1.935   0.983  1.00  0.00     0.013 C 
HETATM   18  C   UNL     1      -3.737   1.612   0.983  1.00  0.00     0.079 C 
HETATM   19  C   UNL     1      -3.906   0.467   0.010  1.00  0.00     0.135 C 
HETATM   20  O   UNL     1      -4.329   0.797  -1.098  1.00  0.00    -0.297 OA
ENDROOT
BRANCH  11  21
HETATM   21  O   UNL     1       4.183   0.352   0.850  1.00  0.00    -0.395 OA
HETATM   22  H   UNL     1       3.233   0.548   0.875  1.00  0.00     0.210 HD
ENDBRANCH  11  21
TORSDOF 1
