REMARK  1 active torsions:
REMARK  status: ('A' for Active; 'I' for Inactive)
REMARK    1  A    between atoms: C_2  and  C_4 
ROOT
HETATM    1  C   UNL     1       1.567  -0.885   0.683  1.00  0.00     0.103 C 
HETATM    2  C   UNL     1       0.722  -0.024  -0.195  1.00  0.00     0.221 C 
HETATM    3  O   UNL     1       1.146   1.069  -0.634  1.00  0.00    -0.286 OA
ENDROOT
BRANCH   2   4
HETATM    4  C   UNL     1      -0.715  -0.120   0.039  1.00  0.00     0.246 C 
HETATM    5  O   UNL     1      -1.380  -0.794  -0.801  1.00  0.00    -0.642 OA
HETATM    6  O   UNL     1      -1.341   0.754   0.909  1.00  0.00    -0.642 OA
ENDBRANCH   2   4
TORSDOF 1
