MODEL 1
REMARK VINA RESULT:      -6.3      0.000      0.000
REMARK  5 active torsions:
REMARK  status: ('A' for Active; 'I' for Inactive)
REMARK    1  A    between atoms: C_2  and  O_3 
REMARK    2  A    between atoms: C_2  and  C_4 
REMARK    3  A    between atoms: C_4  and  O_5 
REMARK    4  A    between atoms: C_4  and  C_6 
REMARK    5  A    between atoms: C_11  and  N_12 
ROOT
HETATM    1  C   UNL     1     -14.587 -10.729  23.316  1.00  0.00     0.127 C 
HETATM    2  C   UNL     1     -13.820 -12.043  22.669  1.00  0.00     0.148 C 
HETATM    3  N   UNL     1     -12.443 -11.781  22.530  1.00  0.00    -0.373 N 
HETATM    4  C   UNL     1     -12.181 -10.891  21.424  1.00  0.00     0.160 C 
HETATM    5  N   UNL     1     -11.106 -10.962  20.647  1.00  0.00    -0.048 NA
HETATM    6  C   UNL     1     -10.609  -9.823  20.114  1.00  0.00     0.702 C 
HETATM    7  N   UNL     1     -11.311  -8.697  20.252  1.00  0.00    -0.155 N 
HETATM    8  C   UNL     1     -12.355  -8.575  21.108  1.00  0.00     0.275 C 
HETATM    9  O   UNL     1     -13.029  -7.501  21.128  1.00  0.00    -0.269 OA
HETATM   10  C   UNL     1     -12.957  -9.742  21.587  1.00  0.00     0.211 C 
HETATM   11  N   UNL     1     -13.522  -9.641  22.868  1.00  0.00    -0.388 N 
HETATM   12  H   UNL     1     -11.747 -12.158  23.115  1.00  0.00     0.161 HD
HETATM   13  H   UNL     1     -11.058  -7.917  19.707  1.00  0.00     0.187 HD
HETATM   14  H   UNL     1     -13.262  -8.912  23.475  1.00  0.00     0.155 HD
ENDROOT
BRANCH   1  15
HETATM   15  C   UNL     1     -15.548 -10.498  21.884  1.00  0.00     0.170 C 
BRANCH  15  16
HETATM   16  C   UNL     1     -16.656  -9.386  22.661  1.00  0.00     0.145 C 
HETATM   17  C   UNL     1     -17.689  -9.358  21.347  1.00  0.00     0.042 C 
BRANCH  16  18
HETATM   18  O   UNL     1     -15.917  -8.125  22.186  1.00  0.00    -0.393 OA
HETATM   19  H   UNL     1     -16.266  -7.851  21.323  1.00  0.00     0.210 HD
ENDBRANCH  16  18
ENDBRANCH  15  16
BRANCH  15  20
HETATM   20  O   UNL     1     -16.447 -11.680  22.163  1.00  0.00    -0.391 OA
HETATM   21  H   UNL     1     -15.909 -12.435  22.447  1.00  0.00     0.210 HD
ENDBRANCH  15  20
ENDBRANCH   1  15
BRANCH   6  22
HETATM   22  N   UNL     1      -9.338  -9.910  19.504  1.00  0.00    -0.233 N 
HETATM   23  H   UNL     1      -9.263  -9.899  18.523  1.00  0.00     0.174 HD
HETATM   24  H   UNL     1      -8.529  -9.982  20.059  1.00  0.00     0.174 HD
ENDBRANCH   6  22
TORSDOF 5
ENDMDL
MODEL 2
REMARK VINA RESULT:      -6.1      2.535      4.327
REMARK  5 active torsions:
REMARK  status: ('A' for Active; 'I' for Inactive)
REMARK    1  A    between atoms: C_2  and  O_3 
REMARK    2  A    between atoms: C_2  and  C_4 
REMARK    3  A    between atoms: C_4  and  O_5 
REMARK    4  A    between atoms: C_4  and  C_6 
REMARK    5  A    between atoms: C_11  and  N_12 
ROOT
HETATM    1  C   UNL     1     -12.008 -10.851  21.759  1.00  0.00     0.127 C 
HETATM    2  C   UNL     1     -11.285  -9.588  20.974  1.00  0.00     0.148 C 
HETATM    3  N   UNL     1     -11.639  -8.370  21.587  1.00  0.00    -0.373 N 
HETATM    4  C   UNL     1     -12.996  -7.991  21.269  1.00  0.00     0.160 C 
HETATM    5  N   UNL     1     -13.402  -6.738  21.103  1.00  0.00    -0.048 NA
HETATM    6  C   UNL     1     -14.668  -6.411  21.444  1.00  0.00     0.702 C 
HETATM    7  N   UNL     1     -15.510  -7.390  21.778  1.00  0.00    -0.155 N 
HETATM    8  C   UNL     1     -15.106  -8.657  22.041  1.00  0.00     0.275 C 
HETATM    9  O   UNL     1     -15.970  -9.557  22.271  1.00  0.00    -0.269 OA
HETATM   10  C   UNL     1     -13.841  -9.052  21.600  1.00  0.00     0.211 C 
HETATM   11  N   UNL     1     -13.210 -10.028  22.388  1.00  0.00    -0.388 N 
HETATM   12  H   UNL     1     -11.037  -7.843  22.160  1.00  0.00     0.161 HD
HETATM   13  H   UNL     1     -16.471  -7.183  21.835  1.00  0.00     0.187 HD
HETATM   14  H   UNL     1     -13.507 -10.196  23.310  1.00  0.00     0.155 HD
ENDROOT
BRANCH   1  15
HETATM   15  C   UNL     1     -12.933 -11.286  20.351  1.00  0.00     0.170 C 
BRANCH  15  16
HETATM   16  C   UNL     1     -13.425 -12.835  21.005  1.00  0.00     0.145 C 
HETATM   17  C   UNL     1     -14.221 -13.274  19.602  1.00  0.00     0.042 C 
BRANCH  16  18
HETATM   18  O   UNL     1     -14.714 -12.295  21.642  1.00  0.00    -0.393 OA
HETATM   19  H   UNL     1     -14.596 -11.358  21.866  1.00  0.00     0.210 HD
ENDBRANCH  16  18
ENDBRANCH  15  16
BRANCH  15  20
HETATM   20  O   UNL     1     -11.754 -11.899  19.631  1.00  0.00    -0.391 OA
HETATM   21  H   UNL     1     -11.006 -11.976  20.243  1.00  0.00     0.210 HD
ENDBRANCH  15  20
ENDBRANCH   1  15
BRANCH   6  22
HETATM   22  N   UNL     1     -14.979  -5.033  21.484  1.00  0.00    -0.233 N 
HETATM   23  H   UNL     1     -15.756  -4.690  20.986  1.00  0.00     0.174 HD
HETATM   24  H   UNL     1     -14.419  -4.417  22.008  1.00  0.00     0.174 HD
ENDBRANCH   6  22
TORSDOF 5
ENDMDL
MODEL 3
REMARK VINA RESULT:      -5.9     10.377     12.440
REMARK  5 active torsions:
REMARK  status: ('A' for Active; 'I' for Inactive)
REMARK    1  A    between atoms: C_2  and  O_3 
REMARK    2  A    between atoms: C_2  and  C_4 
REMARK    3  A    between atoms: C_4  and  O_5 
REMARK    4  A    between atoms: C_4  and  C_6 
REMARK    5  A    between atoms: C_11  and  N_12 
ROOT
HETATM    1  C   UNL     1      -8.054   0.699  22.724  1.00  0.00     0.127 C 
HETATM    2  C   UNL     1      -8.353   2.162  23.435  1.00  0.00     0.148 C 
HETATM    3  N   UNL     1      -9.158   1.990  24.578  1.00  0.00    -0.373 N 
HETATM    4  C   UNL     1     -10.529   1.709  24.224  1.00  0.00     0.160 C 
HETATM    5  N   UNL     1     -11.581   2.127  24.919  1.00  0.00    -0.048 NA
HETATM    6  C   UNL     1     -12.694   1.362  24.944  1.00  0.00     0.702 C 
HETATM    7  N   UNL     1     -12.754   0.300  24.138  1.00  0.00    -0.155 N 
HETATM    8  C   UNL     1     -11.674  -0.200  23.490  1.00  0.00     0.275 C 
HETATM    9  O   UNL     1     -11.819  -1.161  22.675  1.00  0.00    -0.269 OA
HETATM   10  C   UNL     1     -10.548   0.616  23.356  1.00  0.00     0.211 C 
HETATM   11  N   UNL     1      -9.319  -0.062  23.306  1.00  0.00    -0.388 N 
HETATM   12  H   UNL     1      -8.827   2.053  25.503  1.00  0.00     0.161 HD
HETATM   13  H   UNL     1     -13.624  -0.141  24.008  1.00  0.00     0.187 HD
HETATM   14  H   UNL     1      -9.245  -0.990  23.625  1.00  0.00     0.155 HD
ENDROOT
BRANCH   1  15
HETATM   15  C   UNL     1      -8.894   1.156  21.271  1.00  0.00     0.170 C 
BRANCH  15  16
HETATM   16  C   UNL     1      -8.335  -0.236  20.366  1.00  0.00     0.145 C 
HETATM   17  C   UNL     1      -9.042   0.292  18.946  1.00  0.00     0.042 C 
BRANCH  16  18
HETATM   18  O   UNL     1      -9.550  -1.107  20.721  1.00  0.00    -0.393 OA
HETATM   19  H   UNL     1      -9.805  -1.637  19.950  1.00  0.00     0.210 HD
ENDBRANCH  16  18
ENDBRANCH  15  16
BRANCH  15  20
HETATM   20  O   UNL     1      -7.763   2.017  20.757  1.00  0.00    -0.391 OA
HETATM   21  H   UNL     1      -6.996   1.458  20.560  1.00  0.00     0.210 HD
ENDBRANCH  15  20
ENDBRANCH   1  15
BRANCH   6  22
HETATM   22  N   UNL     1     -13.688   1.717  25.883  1.00  0.00    -0.233 N 
HETATM   23  H   UNL     1     -13.638   1.375  26.804  1.00  0.00     0.174 HD
HETATM   24  H   UNL     1     -14.430   2.305  25.615  1.00  0.00     0.174 HD
ENDBRANCH   6  22
TORSDOF 5
ENDMDL
