MODEL 1
REMARK VINA RESULT:      -5.0      0.000      0.000
REMARK  0 active torsions:
REMARK  status: ('A' for Active; 'I' for Inactive)
ROOT
HETATM    1  C   UNL     1     -10.831 -10.089  19.878  1.00  0.00     0.157 C 
HETATM    2  N   UNL     1     -11.714 -10.339  21.015  1.00  0.00    -0.338 N 
HETATM    3  C   UNL     1     -12.015 -11.541  21.565  1.00  0.00     0.212 C 
HETATM    4  N   UNL     1     -13.283 -11.565  21.982  1.00  0.00    -0.223 NA
HETATM    5  C   UNL     1     -13.819 -10.352  21.787  1.00  0.00     0.167 C 
HETATM    6  C   UNL     1     -12.782  -9.567  21.322  1.00  0.00     0.151 C 
HETATM    7  C   UNL     1     -13.066  -8.230  21.146  1.00  0.00     0.282 C 
HETATM    8  O   UNL     1     -12.255  -7.511  20.489  1.00  0.00    -0.265 OA
HETATM    9  N   UNL     1     -14.326  -7.784  21.379  1.00  0.00    -0.269 N 
HETATM   10  C   UNL     1     -14.592  -6.362  21.364  1.00  0.00     0.164 C 
HETATM   11  C   UNL     1     -15.320  -8.624  21.762  1.00  0.00     0.332 C 
HETATM   12  O   UNL     1     -16.530  -8.249  21.763  1.00  0.00    -0.246 OA
HETATM   13  N   UNL     1     -15.116  -9.963  21.739  1.00  0.00    -0.286 N 
HETATM   14  C   UNL     1     -16.178 -10.883  21.335  1.00  0.00     0.163 C 
ENDROOT
TORSDOF 0
ENDMDL
MODEL 2
REMARK VINA RESULT:      -4.9      1.996      4.156
REMARK  0 active torsions:
REMARK  status: ('A' for Active; 'I' for Inactive)
ROOT
HETATM    1  C   UNL     1     -16.237 -11.863  20.619  1.00  0.00     0.157 C 
HETATM    2  N   UNL     1     -15.418 -11.103  21.560  1.00  0.00    -0.338 N 
HETATM    3  C   UNL     1     -15.850 -10.197  22.471  1.00  0.00     0.212 C 
HETATM    4  N   UNL     1     -14.970  -9.201  22.599  1.00  0.00    -0.223 NA
HETATM    5  C   UNL     1     -13.904  -9.472  21.835  1.00  0.00     0.167 C 
HETATM    6  C   UNL     1     -14.140 -10.729  21.313  1.00  0.00     0.151 C 
HETATM    7  C   UNL     1     -13.121 -11.278  20.566  1.00  0.00     0.282 C 
HETATM    8  O   UNL     1     -13.361 -12.298  19.854  1.00  0.00    -0.265 OA
HETATM    9  N   UNL     1     -11.997 -10.550  20.344  1.00  0.00    -0.269 N 
HETATM   10  C   UNL     1     -10.857 -11.178  19.712  1.00  0.00     0.164 C 
HETATM   11  C   UNL     1     -11.858  -9.289  20.823  1.00  0.00     0.332 C 
HETATM   12  O   UNL     1     -10.914  -8.541  20.432  1.00  0.00    -0.246 OA
HETATM   13  N   UNL     1     -12.922  -8.658  21.377  1.00  0.00    -0.286 N 
HETATM   14  C   UNL     1     -13.146  -7.228  21.169  1.00  0.00     0.163 C 
ENDROOT
TORSDOF 0
ENDMDL
MODEL 3
REMARK VINA RESULT:      -4.9      1.587      3.750
REMARK  0 active torsions:
REMARK  status: ('A' for Active; 'I' for Inactive)
ROOT
HETATM    1  C   UNL     1     -14.420  -6.199  21.647  1.00  0.00     0.157 C 
HETATM    2  N   UNL     1     -14.721  -7.620  21.489  1.00  0.00    -0.338 N 
HETATM    3  C   UNL     1     -15.787  -8.289  21.992  1.00  0.00     0.212 C 
HETATM    4  N   UNL     1     -15.442  -9.527  22.351  1.00  0.00    -0.223 NA
HETATM    5  C   UNL     1     -14.160  -9.726  22.016  1.00  0.00     0.167 C 
HETATM    6  C   UNL     1     -13.776  -8.579  21.350  1.00  0.00     0.151 C 
HETATM    7  C   UNL     1     -12.509  -8.587  20.808  1.00  0.00     0.282 C 
HETATM    8  O   UNL     1     -12.001  -7.495  20.414  1.00  0.00    -0.265 OA
HETATM    9  N   UNL     1     -11.712  -9.668  21.004  1.00  0.00    -0.269 N 
HETATM   10  C   UNL     1     -10.452  -9.761  20.298  1.00  0.00     0.164 C 
HETATM   11  C   UNL     1     -12.124 -10.734  21.734  1.00  0.00     0.332 C 
HETATM   12  O   UNL     1     -11.309 -11.634  22.096  1.00  0.00    -0.246 OA
HETATM   13  N   UNL     1     -13.276 -10.660  22.444  1.00  0.00    -0.286 N 
HETATM   14  C   UNL     1     -13.393 -11.280  23.763  1.00  0.00     0.163 C 
ENDROOT
TORSDOF 0
ENDMDL
