REMARK  5 active torsions:
REMARK  status: ('A' for Active; 'I' for Inactive)
REMARK    1  A    between atoms: C_2  and  O_3 
REMARK    2  A    between atoms: C_2  and  C_4 
REMARK    3  A    between atoms: C_4  and  O_5 
REMARK    4  A    between atoms: C_4  and  C_6 
REMARK    5  A    between atoms: C_11  and  N_12 
ROOT
HETATM    1  C   UNL     1      -1.788  -0.577   0.530  1.00  0.00     0.127 C 
HETATM    2  C   UNL     1      -0.923  -1.901   0.047  1.00  0.00     0.148 C 
HETATM    3  N   UNL     1       0.344  -1.903   0.663  1.00  0.00    -0.373 N 
HETATM    4  C   UNL     1       1.223  -0.922   0.072  1.00  0.00     0.160 C 
HETATM    5  N   UNL     1       2.533  -1.085  -0.075  1.00  0.00    -0.048 NA
HETATM    6  C   UNL     1       3.337  -0.001  -0.011  1.00  0.00     0.702 C 
HETATM    7  N   UNL     1       2.774   1.208   0.031  1.00  0.00    -0.155 N 
HETATM    8  C   UNL     1       1.454   1.402   0.271  1.00  0.00     0.275 C 
HETATM    9  O   UNL     1       0.971   2.573   0.215  1.00  0.00    -0.269 OA
HETATM   10  C   UNL     1       0.586   0.320   0.104  1.00  0.00     0.211 C 
HETATM   11  N   UNL     1      -0.549   0.330   0.930  1.00  0.00    -0.388 N 
HETATM   12  H   UNL     1       0.598  -2.499   1.404  1.00  0.00     0.161 HD
HETATM   13  H   UNL     1       3.344   1.996  -0.119  1.00  0.00     0.187 HD
HETATM   14  H   UNL     1      -0.575   0.888   1.740  1.00  0.00     0.155 HD
ENDROOT
BRANCH   1  15
HETATM   15  C   UNL     1      -1.841   0.064  -1.087  1.00  0.00     0.170 C 
BRANCH  15  16
HETATM   16  C   UNL     1      -3.418   0.796  -0.874  1.00  0.00     0.145 C 
HETATM   17  C   UNL     1      -2.976   1.543   0.555  1.00  0.00     0.042 C 
BRANCH  16  18
HETATM   18  O   UNL     1      -4.013  -0.411  -0.132  1.00  0.00    -0.393 OA
HETATM   19  H   UNL     1      -3.392  -0.709   0.551  1.00  0.00     0.210 HD
ENDBRANCH  16  18
ENDBRANCH  15  16
BRANCH  15  20
HETATM   20  O   UNL     1      -2.439  -1.190  -1.682  1.00  0.00    -0.391 OA
HETATM   21  H   UNL     1      -3.181  -1.486  -1.133  1.00  0.00     0.210 HD
ENDBRANCH  15  20
ENDBRANCH   1  15
BRANCH   6  22
HETATM   22  N   UNL     1       4.726  -0.245   0.074  1.00  0.00    -0.233 N 
HETATM   23  H   UNL     1       5.066  -1.168   0.036  1.00  0.00     0.174 HD
HETATM   24  H   UNL     1       5.353   0.507   0.172  1.00  0.00     0.174 HD
ENDBRANCH   6  22
TORSDOF 5
