REMARK  5 active torsions:
REMARK  status: ('A' for Active; 'I' for Inactive)
REMARK    1  A    between atoms: CA_3  and  C_4 
REMARK    2  A    between atoms: CA_10  and  N_11 
REMARK       I    between atoms: N_11  and  C_12 
REMARK    3  A    between atoms: C_12  and  CA_14 
REMARK    4  A    between atoms: CA_14  and  N_15 
REMARK    5  A    between atoms: CA_14  and  C_16 
ROOT
HETATM    1  N   UNL     1      -0.513  -0.398   0.201  1.00  0.00    -0.343 N 
HETATM    2  C   UNL     1      -1.743   0.292   0.126  1.00  0.00     0.253 C 
HETATM    3  O   UNL     1      -1.670   1.527   0.418  1.00  0.00    -0.271 OA
HETATM    4  H   UNL     1      -0.250  -1.075   0.866  1.00  0.00     0.163 HD
ENDROOT
BRANCH   1   5
HETATM    5  CA  UNL     1       0.359   0.149  -1.016  1.00  0.00     0.210 C 
HETATM    6  C   UNL     1       1.416  -1.081  -0.999  1.00  0.00     0.251 C 
HETATM    7  N   UNL     1       2.446  -0.085  -0.799  1.00  0.00    -0.293 N 
HETATM    8  O   UNL     1       1.357  -1.933  -1.918  1.00  0.00    -0.271 OA
HETATM    9  CA  UNL     1       3.812   0.063  -0.416  1.00  0.00     0.118 C 
HETATM   10  C   UNL     1       1.544   0.903  -0.071  1.00  0.00     0.187 C 
HETATM   11  C   UNL     1       4.211   0.360   0.819  1.00  0.00    -0.041 C 
HETATM   12  C   UNL     1       5.370   0.450   1.032  1.00  0.00     0.047 C 
HETATM   13  C   UNL     1       3.369  -0.131   1.949  1.00  0.00     0.112 C 
HETATM   14  S   UNL     1       1.599  -0.148   1.521  1.00  0.00    -0.136 SA
BRANCH   9  15
HETATM   15  C   UNL     1       4.768  -0.178  -1.504  1.00  0.00     0.227 C 
HETATM   16  O   UNL     1       5.817  -0.866  -1.308  1.00  0.00    -0.643 OA
HETATM   17  OXT UNL     1       4.903   0.762  -2.534  1.00  0.00    -0.643 OA
ENDBRANCH   9  15
ENDBRANCH   1   5
BRANCH   2  18
HETATM   18  CA  UNL     1      -2.953  -0.316   1.039  1.00  0.00     0.307 C 
BRANCH  18  19
HETATM   19  N   UNL     1      -2.676  -1.820   0.573  1.00  0.00    -0.062 N 
HETATM   20  H1  UNL     1      -2.550  -1.845  -0.439  1.00  0.00     0.275 HD
HETATM   21  H2  UNL     1      -3.469  -2.408   0.832  1.00  0.00     0.275 HD
HETATM   22  H3  UNL     1      -1.832  -2.167   1.029  1.00  0.00     0.275 HD
ENDBRANCH  18  19
BRANCH  18  23
HETATM   23  C   UNL     1      -4.032  -0.093  -0.172  1.00  0.00    -0.019 C 
HETATM   24  C   UNL     1      -5.149  -0.885  -0.047  1.00  0.00     0.010 C 
HETATM   25  C   UNL     1      -6.339  -0.415  -0.586  1.00  0.00     0.001 C 
HETATM   26  C   UNL     1      -6.462   0.924  -0.939  1.00  0.00     0.000 C 
HETATM   27  C   UNL     1      -5.314   1.683  -1.136  1.00  0.00     0.001 C 
HETATM   28  C   UNL     1      -4.122   1.235  -0.575  1.00  0.00     0.010 C 
ENDBRANCH  18  23
ENDBRANCH   2  18
TORSDOF 5
