REMARK  5 active torsions:
REMARK  status: ('A' for Active; 'I' for Inactive)
REMARK    1  A    between atoms: C_4  and  C_5 
REMARK    2  A    between atoms: C_5  and  O_6 
REMARK    3  A    between atoms: C_5  and  C_7 
REMARK    4  A    between atoms: C_7  and  O_8 
REMARK    5  A    between atoms: C_11  and  O_12 
ROOT
HETATM    1  O   UNL     1      -2.515  -1.292   0.287  1.00  0.00    -0.257 OA
HETATM    2  C   UNL     1      -1.464  -0.712   0.041  1.00  0.00     0.316 C 
HETATM    3  O   UNL     1      -0.631  -1.050  -0.997  1.00  0.00    -0.304 OA
HETATM    4  C   UNL     1       0.633  -0.194  -0.788  1.00  0.00     0.211 C 
HETATM    5  C   UNL     1      -0.256   1.133  -0.535  1.00  0.00     0.222 C 
HETATM    6  O   UNL     1       0.551   2.199  -0.113  1.00  0.00    -0.214 OA
HETATM    7  C   UNL     1      -1.241   0.723   0.243  1.00  0.00     0.163 C 
ENDROOT
BRANCH   4   8
HETATM    8  C   UNL     1       0.690  -0.556   0.912  1.00  0.00     0.174 C 
BRANCH   8   9
HETATM    9  O   UNL     1       1.366  -1.891   0.655  1.00  0.00    -0.391 OA
HETATM   10  H   UNL     1       2.091  -1.769   0.023  1.00  0.00     0.210 HD
ENDBRANCH   8   9
BRANCH   8  11
HETATM   11  C   UNL     1       2.120   0.234   1.115  1.00  0.00     0.198 C 
BRANCH  11  12
HETATM   12  O   UNL     1       2.977  -0.242   0.153  1.00  0.00    -0.398 OA
HETATM   13  H   UNL     1       3.077  -1.201   0.256  1.00  0.00     0.209 HD
ENDBRANCH  11  12
ENDBRANCH   8  11
ENDBRANCH   4   8
BRANCH   7  14
HETATM   14  O   UNL     1      -2.230   1.647   0.611  1.00  0.00    -0.356 OA
HETATM   15  H   UNL     1      -2.009   2.550   0.721  1.00  0.00     0.217 HD
ENDBRANCH   7  14
TORSDOF 5
