MODEL 1
REMARK VINA RESULT:      -6.4      0.000      0.000
REMARK  9 active torsions:
REMARK  status: ('A' for Active; 'I' for Inactive)
REMARK    1  A    between atoms: N_14  and  C_15 
REMARK    2  A    between atoms: C_15  and  C_16 
REMARK    3  A    between atoms: C_16  and  O_17 
REMARK    4  A    between atoms: C_16  and  C_18 
REMARK    5  A    between atoms: C_18  and  O_19 
REMARK    6  A    between atoms: C_18  and  C_20 
REMARK    7  A    between atoms: C_20  and  O_21 
REMARK    8  A    between atoms: C_20  and  C_22 
REMARK    9  A    between atoms: C_22  and  O_23 
ROOT
HETATM    1  C   UNL     1     -24.416 -10.432  27.600  1.00  0.00     0.049 C 
HETATM    2  C   UNL     1     -23.061 -10.475  27.015  1.00  0.00    -0.054 C 
HETATM    3  C   UNL     1     -21.930 -10.187  27.750  1.00  0.00     0.041 C 
HETATM    4  C   UNL     1     -20.672 -10.446  27.218  1.00  0.00     0.085 A 
HETATM    5  N   UNL     1     -19.661 -10.499  28.093  1.00  0.00    -0.237 NA
HETATM    6  C   UNL     1     -18.420 -10.621  27.589  1.00  0.00     0.171 A 
HETATM    7  C   UNL     1     -17.428 -10.980  28.494  1.00  0.00     0.282 C 
HETATM    8  O   UNL     1     -17.513 -10.480  29.641  1.00  0.00    -0.265 OA
HETATM    9  N   UNL     1     -16.270 -11.479  27.999  1.00  0.00    -0.272 N 
HETATM   10  C   UNL     1     -16.094 -11.636  26.664  1.00  0.00     0.350 C 
HETATM   11  O   UNL     1     -14.965 -11.999  26.216  1.00  0.00    -0.244 OA
HETATM   12  N   UNL     1     -17.010 -11.207  25.765  1.00  0.00    -0.173 NA
HETATM   13  C   UNL     1     -18.244 -10.788  26.141  1.00  0.00     0.170 A 
HETATM   14  N   UNL     1     -19.294 -10.803  25.282  1.00  0.00    -0.325 N 
HETATM   15  C   UNL     1     -20.509 -10.606  25.850  1.00  0.00     0.065 A 
HETATM   16  C   UNL     1     -21.684 -10.786  25.130  1.00  0.00     0.039 C 
HETATM   17  C   UNL     1     -22.919 -10.887  25.709  1.00  0.00    -0.054 C 
HETATM   18  C   UNL     1     -24.117 -10.964  24.827  1.00  0.00     0.049 C 
HETATM   19  H   UNL     1     -15.547 -11.731  28.617  1.00  0.00     0.174 HD
ENDROOT
BRANCH  14  20
HETATM   20  C   UNL     1     -19.249 -11.734  24.155  1.00  0.00     0.165 C 
BRANCH  20  21
HETATM   21  C   UNL     1     -18.787 -10.773  22.873  1.00  0.00     0.167 C 
BRANCH  21  22
HETATM   22  O   UNL     1     -20.040 -11.170  22.073  1.00  0.00    -0.391 OA
HETATM   23  H   UNL     1     -20.627 -11.699  22.635  1.00  0.00     0.210 HD
ENDBRANCH  21  22
BRANCH  21  24
HETATM   24  C   UNL     1     -17.878 -12.091  22.178  1.00  0.00     0.179 C 
BRANCH  24  25
HETATM   25  O   UNL     1     -16.642 -11.798  22.992  1.00  0.00    -0.390 OA
HETATM   26  H   UNL     1     -16.811 -11.046  23.580  1.00  0.00     0.210 HD
ENDBRANCH  24  25
BRANCH  24  27
HETATM   27  C   UNL     1     -17.316 -11.135  20.823  1.00  0.00     0.173 C 
BRANCH  27  28
HETATM   28  O   UNL     1     -18.415 -11.625  19.864  1.00  0.00    -0.391 OA
HETATM   29  H   UNL     1     -19.278 -11.319  20.181  1.00  0.00     0.210 HD
ENDBRANCH  27  28
BRANCH  27  30
HETATM   30  C   UNL     1     -16.252 -12.324  20.325  1.00  0.00     0.198 C 
BRANCH  30  31
HETATM   31  O   UNL     1     -15.047 -11.628  20.524  1.00  0.00    -0.398 OA
HETATM   32  H   UNL     1     -15.051 -11.219  21.403  1.00  0.00     0.209 HD
ENDBRANCH  30  31
ENDBRANCH  27  30
ENDBRANCH  24  27
ENDBRANCH  21  24
ENDBRANCH  20  21
ENDBRANCH  14  20
TORSDOF 9
ENDMDL
MODEL 2
REMARK VINA RESULT:      -6.3      4.323      6.790
REMARK  9 active torsions:
REMARK  status: ('A' for Active; 'I' for Inactive)
REMARK    1  A    between atoms: N_14  and  C_15 
REMARK    2  A    between atoms: C_15  and  C_16 
REMARK    3  A    between atoms: C_16  and  O_17 
REMARK    4  A    between atoms: C_16  and  C_18 
REMARK    5  A    between atoms: C_18  and  O_19 
REMARK    6  A    between atoms: C_18  and  C_20 
REMARK    7  A    between atoms: C_20  and  O_21 
REMARK    8  A    between atoms: C_20  and  C_22 
REMARK    9  A    between atoms: C_22  and  O_23 
ROOT
HETATM    1  C   UNL     1     -19.478 -10.549  25.530  1.00  0.00     0.049 C 
HETATM    2  C   UNL     1     -18.226 -10.567  24.748  1.00  0.00    -0.054 C 
HETATM    3  C   UNL     1     -18.029  -9.754  23.650  1.00  0.00     0.041 C 
HETATM    4  C   UNL     1     -16.766  -9.654  23.079  1.00  0.00     0.085 A 
HETATM    5  N   UNL     1     -16.560  -8.597  22.284  1.00  0.00    -0.237 NA
HETATM    6  C   UNL     1     -15.391  -8.548  21.622  1.00  0.00     0.171 A 
HETATM    7  C   UNL     1     -15.065  -7.322  21.053  1.00  0.00     0.282 C 
HETATM    8  O   UNL     1     -16.012  -6.669  20.555  1.00  0.00    -0.265 OA
HETATM    9  N   UNL     1     -13.771  -7.105  20.715  1.00  0.00    -0.272 N 
HETATM   10  C   UNL     1     -12.825  -8.050  20.939  1.00  0.00     0.350 C 
HETATM   11  O   UNL     1     -11.644  -7.871  20.515  1.00  0.00    -0.244 OA
HETATM   12  N   UNL     1     -13.139  -9.282  21.404  1.00  0.00    -0.173 NA
HETATM   13  C   UNL     1     -14.377  -9.579  21.872  1.00  0.00     0.170 A 
HETATM   14  N   UNL     1     -14.584 -10.602  22.739  1.00  0.00    -0.325 N 
HETATM   15  C   UNL     1     -15.809 -10.628  23.320  1.00  0.00     0.065 A 
HETATM   16  C   UNL     1     -16.097 -11.496  24.366  1.00  0.00     0.039 C 
HETATM   17  C   UNL     1     -17.195 -11.373  25.172  1.00  0.00    -0.054 C 
HETATM   18  C   UNL     1     -17.457 -12.430  26.188  1.00  0.00     0.049 C 
HETATM   19  H   UNL     1     -13.515  -6.250  20.301  1.00  0.00     0.174 HD
ENDROOT
BRANCH  14  20
HETATM   20  C   UNL     1     -13.463 -11.038  23.572  1.00  0.00     0.165 C 
BRANCH  20  21
HETATM   21  C   UNL     1     -13.152 -12.583  23.028  1.00  0.00     0.167 C 
BRANCH  21  22
HETATM   22  O   UNL     1     -12.763 -13.043  24.444  1.00  0.00    -0.391 OA
HETATM   23  H   UNL     1     -12.361 -13.925  24.398  1.00  0.00     0.210 HD
ENDBRANCH  21  22
BRANCH  21  24
HETATM   24  C   UNL     1     -11.499 -12.154  22.671  1.00  0.00     0.179 C 
BRANCH  24  25
HETATM   25  O   UNL     1     -11.774 -11.917  21.206  1.00  0.00    -0.390 OA
HETATM   26  H   UNL     1     -12.186 -11.046  21.090  1.00  0.00     0.210 HD
ENDBRANCH  24  25
BRANCH  24  27
HETATM   27  C   UNL     1     -11.011 -13.813  22.398  1.00  0.00     0.173 C 
BRANCH  27  28
HETATM   28  O   UNL     1     -10.166 -13.904  23.680  1.00  0.00    -0.391 OA
HETATM   29  H   UNL     1     -10.627 -14.455  24.331  1.00  0.00     0.210 HD
ENDBRANCH  27  28
BRANCH  27  30
HETATM   30  C   UNL     1      -9.693 -13.356  21.477  1.00  0.00     0.198 C 
BRANCH  30  31
HETATM   31  O   UNL     1      -9.958 -14.124  20.330  1.00  0.00    -0.398 OA
HETATM   32  H   UNL     1     -10.911 -14.292  20.267  1.00  0.00     0.209 HD
ENDBRANCH  30  31
ENDBRANCH  27  30
ENDBRANCH  24  27
ENDBRANCH  21  24
ENDBRANCH  20  21
ENDBRANCH  14  20
TORSDOF 9
ENDMDL
MODEL 3
REMARK VINA RESULT:      -6.2      5.454      9.046
REMARK  9 active torsions:
REMARK  status: ('A' for Active; 'I' for Inactive)
REMARK    1  A    between atoms: N_14  and  C_15 
REMARK    2  A    between atoms: C_15  and  C_16 
REMARK    3  A    between atoms: C_16  and  O_17 
REMARK    4  A    between atoms: C_16  and  C_18 
REMARK    5  A    between atoms: C_18  and  O_19 
REMARK    6  A    between atoms: C_18  and  C_20 
REMARK    7  A    between atoms: C_20  and  O_21 
REMARK    8  A    between atoms: C_20  and  C_22 
REMARK    9  A    between atoms: C_22  and  O_23 
ROOT
HETATM    1  C   UNL     1     -10.411 -14.249  20.603  1.00  0.00     0.049 C 
HETATM    2  C   UNL     1     -11.513 -13.267  20.634  1.00  0.00    -0.054 C 
HETATM    3  C   UNL     1     -12.789 -13.575  20.207  1.00  0.00     0.041 C 
HETATM    4  C   UNL     1     -13.834 -12.692  20.452  1.00  0.00     0.085 A 
HETATM    5  N   UNL     1     -15.069 -13.199  20.356  1.00  0.00    -0.237 NA
HETATM    6  C   UNL     1     -16.095 -12.336  20.463  1.00  0.00     0.171 A 
HETATM    7  C   UNL     1     -17.347 -12.903  20.668  1.00  0.00     0.282 C 
HETATM    8  O   UNL     1     -17.583 -13.971  20.055  1.00  0.00    -0.265 OA
HETATM    9  N   UNL     1     -18.331 -12.107  21.154  1.00  0.00    -0.272 N 
HETATM   10  C   UNL     1     -18.093 -10.804  21.441  1.00  0.00     0.350 C 
HETATM   11  O   UNL     1     -19.052 -10.050  21.788  1.00  0.00    -0.244 OA
HETATM   12  N   UNL     1     -16.908 -10.213  21.161  1.00  0.00    -0.173 NA
HETATM   13  C   UNL     1     -15.823 -10.928  20.773  1.00  0.00     0.170 A 
HETATM   14  N   UNL     1     -14.562 -10.454  20.936  1.00  0.00    -0.325 N 
HETATM   15  C   UNL     1     -13.574 -11.362  20.747  1.00  0.00     0.065 A 
HETATM   16  C   UNL     1     -12.253 -11.074  21.067  1.00  0.00     0.039 C 
HETATM   17  C   UNL     1     -11.275 -12.024  21.173  1.00  0.00    -0.054 C 
HETATM   18  C   UNL     1      -9.871 -11.582  21.410  1.00  0.00     0.049 C 
HETATM   19  H   UNL     1     -19.230 -12.480  21.298  1.00  0.00     0.174 HD
ENDROOT
BRANCH  14  20
HETATM   20  C   UNL     1     -14.331  -9.454  21.979  1.00  0.00     0.165 C 
BRANCH  20  21
HETATM   21  C   UNL     1     -13.844  -8.107  21.125  1.00  0.00     0.167 C 
BRANCH  21  22
HETATM   22  O   UNL     1     -12.683  -7.859  22.104  1.00  0.00    -0.391 OA
HETATM   23  H   UNL     1     -11.931  -8.420  21.860  1.00  0.00     0.210 HD
ENDBRANCH  21  22
BRANCH  21  24
HETATM   24  C   UNL     1     -14.907  -7.092  22.067  1.00  0.00     0.179 C 
BRANCH  24  25
HETATM   25  O   UNL     1     -15.977  -7.056  21.004  1.00  0.00    -0.390 OA
HETATM   26  H   UNL     1     -15.575  -6.845  20.146  1.00  0.00     0.210 HD
ENDBRANCH  24  25
BRANCH  24  27
HETATM   27  C   UNL     1     -14.173  -5.607  21.501  1.00  0.00     0.173 C 
BRANCH  27  28
HETATM   28  O   UNL     1     -13.418  -5.336  22.813  1.00  0.00    -0.391 OA
HETATM   29  H   UNL     1     -13.295  -6.169  23.293  1.00  0.00     0.210 HD
ENDBRANCH  27  28
BRANCH  27  30
HETATM   30  C   UNL     1     -15.482  -4.686  21.980  1.00  0.00     0.198 C 
BRANCH  30  31
HETATM   31  O   UNL     1     -15.810  -4.117  20.737  1.00  0.00    -0.398 OA
HETATM   32  H   UNL     1     -15.293  -4.547  20.039  1.00  0.00     0.209 HD
ENDBRANCH  30  31
ENDBRANCH  27  30
ENDBRANCH  24  27
ENDBRANCH  21  24
ENDBRANCH  20  21
ENDBRANCH  14  20
TORSDOF 9
ENDMDL
