MODEL 1
REMARK VINA RESULT:      -6.8      0.000      0.000
REMARK  5 active torsions:
REMARK  status: ('A' for Active; 'I' for Inactive)
REMARK    1  A    between atoms: C_2  and  C_3 
REMARK    2  A    between atoms: C_4  and  C_5 
REMARK    3  A    between atoms: C_14  and  C_15 
REMARK    4  A    between atoms: C_16  and  C_17 
REMARK    5  A    between atoms: C_19  and  C_20 
ROOT
HETATM    1  C   UNL     1     -15.225 -12.300  20.038  1.00  0.00     0.048 C 
HETATM    2  C   UNL     1     -15.679 -12.078  21.427  1.00  0.00    -0.062 C 
HETATM    3  C   UNL     1     -14.981 -11.259  22.215  1.00  0.00     0.007 C 
ENDROOT
BRANCH   2   4
HETATM    4  C   UNL     1     -17.055 -12.332  21.871  1.00  0.00     0.007 C 
HETATM    5  C   UNL     1     -17.445 -12.281  23.120  1.00  0.00     0.009 C 
BRANCH   5   6
HETATM    6  C   UNL     1     -18.583 -11.508  23.606  1.00  0.00    -0.048 C 
HETATM    7  C   UNL     1     -18.462 -10.540  24.514  1.00  0.00    -0.077 C 
HETATM    8  C   UNL     1     -17.153  -9.816  24.535  1.00  0.00     0.044 C 
HETATM    9  C   UNL     1     -19.438 -10.429  25.643  1.00  0.00     0.034 C 
HETATM   10  C   UNL     1     -20.590 -11.368  25.308  1.00  0.00     0.005 C 
HETATM   11  C   UNL     1     -20.949 -11.092  23.858  1.00  0.00     0.014 C 
HETATM   12  C   UNL     1     -19.916 -11.778  22.986  1.00  0.00    -0.020 C 
HETATM   13  C   UNL     1     -19.964 -11.086  21.628  1.00  0.00     0.020 C 
HETATM   14  C   UNL     1     -20.147 -13.258  22.884  1.00  0.00     0.020 C 
ENDBRANCH   5   6
ENDBRANCH   2   4
BRANCH   3  15
HETATM   15  C   UNL     1     -13.812 -10.554  21.687  1.00  0.00     0.001 C 
HETATM   16  C   UNL     1     -13.420  -9.391  22.174  1.00  0.00     0.007 C 
BRANCH  16  17
HETATM   17  C   UNL     1     -12.801  -8.395  21.296  1.00  0.00    -0.056 C 
HETATM   18  C   UNL     1     -11.677  -8.735  20.371  1.00  0.00     0.048 C 
HETATM   19  C   UNL     1     -13.465  -7.268  21.046  1.00  0.00     0.091 C 
BRANCH  19  20
HETATM   20  C   UNL     1     -14.859  -7.123  21.470  1.00  0.00     0.199 C 
HETATM   21  O   UNL     1     -15.038  -6.473  22.542  1.00  0.00    -0.644 OA
HETATM   22  O   UNL     1     -15.790  -6.892  20.452  1.00  0.00    -0.644 OA
ENDBRANCH  19  20
ENDBRANCH  16  17
ENDBRANCH   3  15
TORSDOF 5
ENDMDL
MODEL 2
REMARK VINA RESULT:      -6.8      2.347      4.136
REMARK  5 active torsions:
REMARK  status: ('A' for Active; 'I' for Inactive)
REMARK    1  A    between atoms: C_2  and  C_3 
REMARK    2  A    between atoms: C_4  and  C_5 
REMARK    3  A    between atoms: C_14  and  C_15 
REMARK    4  A    between atoms: C_16  and  C_17 
REMARK    5  A    between atoms: C_19  and  C_20 
ROOT
HETATM    1  C   UNL     1     -18.804 -12.153  21.090  1.00  0.00     0.048 C 
HETATM    2  C   UNL     1     -19.292 -11.244  22.149  1.00  0.00    -0.062 C 
HETATM    3  C   UNL     1     -18.645 -10.098  22.369  1.00  0.00     0.007 C 
ENDROOT
BRANCH   2   4
HETATM    4  C   UNL     1     -20.663 -11.286  22.672  1.00  0.00     0.007 C 
HETATM    5  C   UNL     1     -21.032 -12.000  23.705  1.00  0.00     0.009 C 
BRANCH   5   6
HETATM    6  C   UNL     1     -21.765 -11.483  24.856  1.00  0.00    -0.048 C 
HETATM    7  C   UNL     1     -23.092 -11.354  24.869  1.00  0.00    -0.077 C 
HETATM    8  C   UNL     1     -23.855 -12.319  24.016  1.00  0.00     0.044 C 
HETATM    9  C   UNL     1     -23.731 -10.121  25.423  1.00  0.00     0.034 C 
HETATM   10  C   UNL     1     -22.632  -9.355  26.146  1.00  0.00     0.005 C 
HETATM   11  C   UNL     1     -21.898 -10.377  26.999  1.00  0.00     0.014 C 
HETATM   12  C   UNL     1     -20.980 -11.167  26.088  1.00  0.00    -0.020 C 
HETATM   13  C   UNL     1     -20.672 -12.474  26.810  1.00  0.00     0.020 C 
HETATM   14  C   UNL     1     -19.739 -10.404  25.727  1.00  0.00     0.020 C 
ENDBRANCH   5   6
ENDBRANCH   2   4
BRANCH   3  15
HETATM   15  C   UNL     1     -17.501  -9.731  21.535  1.00  0.00     0.001 C 
HETATM   16  C   UNL     1     -16.258  -9.961  21.915  1.00  0.00     0.007 C 
BRANCH  16  17
HETATM   17  C   UNL     1     -15.185  -9.042  21.527  1.00  0.00    -0.056 C 
HETATM   18  C   UNL     1     -15.427  -7.584  21.300  1.00  0.00     0.048 C 
HETATM   19  C   UNL     1     -13.923  -9.418  21.723  1.00  0.00     0.091 C 
BRANCH  19  20
HETATM   20  C   UNL     1     -13.624 -10.627  22.495  1.00  0.00     0.199 C 
HETATM   21  O   UNL     1     -12.726 -11.375  22.008  1.00  0.00    -0.644 OA
HETATM   22  O   UNL     1     -13.612 -10.480  23.885  1.00  0.00    -0.644 OA
ENDBRANCH  19  20
ENDBRANCH  16  17
ENDBRANCH   3  15
TORSDOF 5
ENDMDL
MODEL 3
REMARK VINA RESULT:      -6.7      2.364      7.023
REMARK  5 active torsions:
REMARK  status: ('A' for Active; 'I' for Inactive)
REMARK    1  A    between atoms: C_2  and  C_3 
REMARK    2  A    between atoms: C_4  and  C_5 
REMARK    3  A    between atoms: C_14  and  C_15 
REMARK    4  A    between atoms: C_16  and  C_17 
REMARK    5  A    between atoms: C_19  and  C_20 
ROOT
HETATM    1  C   UNL     1     -15.767 -13.614  22.048  1.00  0.00     0.048 C 
HETATM    2  C   UNL     1     -15.118 -12.950  20.897  1.00  0.00    -0.062 C 
HETATM    3  C   UNL     1     -15.795 -12.024  20.217  1.00  0.00     0.007 C 
ENDROOT
BRANCH   2   4
HETATM    4  C   UNL     1     -13.662 -12.906  20.714  1.00  0.00     0.007 C 
HETATM    5  C   UNL     1     -13.031 -11.950  20.078  1.00  0.00     0.009 C 
BRANCH   5   6
HETATM    6  C   UNL     1     -11.899 -11.202  20.611  1.00  0.00    -0.048 C 
HETATM    7  C   UNL     1     -12.015  -9.966  21.098  1.00  0.00    -0.077 C 
HETATM    8  C   UNL     1     -13.340  -9.617  21.698  1.00  0.00     0.044 C 
HETATM    9  C   UNL     1     -11.008  -8.915  20.754  1.00  0.00     0.034 C 
HETATM   10  C   UNL     1      -9.844  -9.636  20.087  1.00  0.00     0.005 C 
HETATM   11  C   UNL     1      -9.537 -10.839  20.964  1.00  0.00     0.014 C 
HETATM   12  C   UNL     1     -10.579 -11.901  20.677  1.00  0.00    -0.020 C 
HETATM   13  C   UNL     1     -10.590 -12.836  21.881  1.00  0.00     0.020 C 
HETATM   14  C   UNL     1     -10.315 -12.626  19.389  1.00  0.00     0.020 C 
ENDBRANCH   5   6
ENDBRANCH   2   4
BRANCH   3  15
HETATM   15  C   UNL     1     -17.142 -11.641  20.642  1.00  0.00     0.001 C 
HETATM   16  C   UNL     1     -17.410 -10.435  21.109  1.00  0.00     0.007 C 
BRANCH  16  17
HETATM   17  C   UNL     1     -18.435 -10.255  22.139  1.00  0.00    -0.056 C 
HETATM   18  C   UNL     1     -19.775 -10.913  22.055  1.00  0.00     0.048 C 
HETATM   19  C   UNL     1     -18.063  -9.798  23.334  1.00  0.00     0.091 C 
BRANCH  19  20
HETATM   20  C   UNL     1     -16.642  -9.680  23.669  1.00  0.00     0.199 C 
HETATM   21  O   UNL     1     -16.258  -8.524  24.012  1.00  0.00    -0.644 OA
HETATM   22  O   UNL     1     -16.090 -10.746  24.386  1.00  0.00    -0.644 OA
ENDBRANCH  19  20
ENDBRANCH  16  17
ENDBRANCH   3  15
TORSDOF 5
ENDMDL
