MODEL 1
REMARK VINA RESULT:      -3.8      0.000      0.000
REMARK  2 active torsions:
REMARK  status: ('A' for Active; 'I' for Inactive)
REMARK    1  A    between atoms: N_1  and  C_2 
REMARK    2  A    between atoms: C_6  and  O_7 
ROOT
HETATM    1  C   UNL     1     -16.615  -2.884  21.251  1.00  0.00     0.287 C 
HETATM    2  C   UNL     1     -15.010  -3.260  21.293  1.00  0.00     0.245 C 
HETATM    3  O   UNL     1     -15.304  -4.663  21.292  1.00  0.00    -0.252 OA
HETATM    4  N   UNL     1     -16.286  -4.856  20.350  1.00  0.00    -0.111 NA
HETATM    5  C   UNL     1     -16.741  -3.724  19.881  1.00  0.00     0.198 C 
ENDROOT
BRANCH   1   6
HETATM    6  N   UNL     1     -16.342  -1.497  20.548  1.00  0.00    -0.065 N 
HETATM    7  H   UNL     1     -17.160  -1.224  20.004  1.00  0.00     0.275 HD
HETATM    8  H   UNL     1     -15.535  -1.582  19.931  1.00  0.00     0.275 HD
HETATM    9  H   UNL     1     -16.154  -0.788  21.257  1.00  0.00     0.275 HD
ENDBRANCH   1   6
BRANCH   5  10
HETATM   10  O   UNL     1     -16.459  -3.279  18.630  1.00  0.00    -0.345 OA
HETATM   11  H   UNL     1     -15.655  -2.827  18.466  1.00  0.00     0.219 HD
ENDBRANCH   5  10
TORSDOF 2
ENDMDL
MODEL 2
REMARK VINA RESULT:      -3.8      1.484      2.477
REMARK  2 active torsions:
REMARK  status: ('A' for Active; 'I' for Inactive)
REMARK    1  A    between atoms: N_1  and  C_2 
REMARK    2  A    between atoms: C_6  and  O_7 
ROOT
HETATM    1  C   UNL     1     -15.627  -2.048  20.777  1.00  0.00     0.287 C 
HETATM    2  C   UNL     1     -17.151  -2.627  21.023  1.00  0.00     0.245 C 
HETATM    3  O   UNL     1     -16.777  -3.919  20.529  1.00  0.00    -0.252 OA
HETATM    4  N   UNL     1     -15.561  -4.216  21.095  1.00  0.00    -0.111 NA
HETATM    5  C   UNL     1     -15.068  -3.202  21.754  1.00  0.00     0.198 C 
ENDROOT
BRANCH   1   6
HETATM    6  N   UNL     1     -15.784  -0.959  21.909  1.00  0.00    -0.065 N 
HETATM    7  H   UNL     1     -15.406  -1.322  22.784  1.00  0.00     0.275 HD
HETATM    8  H   UNL     1     -16.770  -0.735  22.032  1.00  0.00     0.275 HD
HETATM    9  H   UNL     1     -15.274  -0.117  21.643  1.00  0.00     0.275 HD
ENDBRANCH   1   6
BRANCH   5  10
HETATM   10  O   UNL     1     -15.018  -3.159  23.110  1.00  0.00    -0.345 OA
HETATM   11  H   UNL     1     -14.951  -3.955  23.600  1.00  0.00     0.219 HD
ENDBRANCH   5  10
TORSDOF 2
ENDMDL
MODEL 3
REMARK VINA RESULT:      -3.8      1.902      2.016
REMARK  2 active torsions:
REMARK  status: ('A' for Active; 'I' for Inactive)
REMARK    1  A    between atoms: N_1  and  C_2 
REMARK    2  A    between atoms: C_6  and  O_7 
ROOT
HETATM    1  C   UNL     1     -16.185  -1.360  22.070  1.00  0.00     0.287 C 
HETATM    2  C   UNL     1     -14.626  -1.630  22.536  1.00  0.00     0.245 C 
HETATM    3  O   UNL     1     -15.005  -2.821  23.235  1.00  0.00    -0.252 OA
HETATM    4  N   UNL     1     -15.866  -3.503  22.409  1.00  0.00    -0.111 NA
HETATM    5  C   UNL     1     -16.184  -2.804  21.352  1.00  0.00     0.198 C 
ENDROOT
BRANCH   1   6
HETATM    6  N   UNL     1     -15.736  -0.558  20.787  1.00  0.00    -0.065 N 
HETATM    7  H   UNL     1     -16.029   0.415  20.875  1.00  0.00     0.275 HD
HETATM    8  H   UNL     1     -16.166  -0.970  19.960  1.00  0.00     0.275 HD
HETATM    9  H   UNL     1     -14.721  -0.599  20.699  1.00  0.00     0.275 HD
ENDBRANCH   1   6
BRANCH   5  10
HETATM   10  O   UNL     1     -15.713  -3.090  20.111  1.00  0.00    -0.345 OA
HETATM   11  H   UNL     1     -14.789  -3.151  19.965  1.00  0.00     0.219 HD
ENDBRANCH   5  10
TORSDOF 2
ENDMDL
