REMARK  9 active torsions:
REMARK  status: ('A' for Active; 'I' for Inactive)
REMARK    1  A    between atoms: N_14  and  C_15 
REMARK    2  A    between atoms: C_15  and  C_16 
REMARK    3  A    between atoms: C_16  and  O_17 
REMARK    4  A    between atoms: C_16  and  C_18 
REMARK    5  A    between atoms: C_18  and  O_19 
REMARK    6  A    between atoms: C_18  and  C_20 
REMARK    7  A    between atoms: C_20  and  O_21 
REMARK    8  A    between atoms: C_20  and  C_22 
REMARK    9  A    between atoms: C_22  and  O_23 
ROOT
HETATM    1  C   UNL     1      -4.191  -3.876   0.090  1.00  0.00     0.049 C 
HETATM    2  C   UNL     1      -3.137  -2.855  -0.076  1.00  0.00    -0.054 C 
HETATM    3  C   UNL     1      -3.401  -1.595  -0.573  1.00  0.00     0.041 C 
HETATM    4  C   UNL     1      -2.425  -0.607  -0.512  1.00  0.00     0.085 A 
HETATM    5  N   UNL     1      -2.852   0.653  -0.657  1.00  0.00    -0.237 NA
HETATM    6  C   UNL     1      -1.913   1.613  -0.728  1.00  0.00     0.171 A 
HETATM    7  C   UNL     1      -2.364   2.918  -0.570  1.00  0.00     0.282 C 
HETATM    8  O   UNL     1      -3.475   3.190  -1.084  1.00  0.00    -0.265 OA
HETATM    9  N   UNL     1      -1.452   3.870  -0.256  1.00  0.00    -0.272 N 
HETATM   10  C   UNL     1      -0.145   3.553  -0.089  1.00  0.00     0.350 C 
HETATM   11  O   UNL     1       0.708   4.473   0.094  1.00  0.00    -0.244 OA
HETATM   12  N   UNL     1       0.327   2.307  -0.330  1.00  0.00    -0.173 NA
HETATM   13  C   UNL     1      -0.501   1.255  -0.548  1.00  0.00     0.170 A 
HETATM   14  N   UNL     1      -0.101  -0.023  -0.330  1.00  0.00    -0.325 N 
HETATM   15  C   UNL     1      -1.092  -0.948  -0.338  1.00  0.00     0.065 A 
HETATM   16  C   UNL     1      -0.863  -2.260   0.059  1.00  0.00     0.039 C 
HETATM   17  C   UNL     1      -1.861  -3.149   0.347  1.00  0.00    -0.054 C 
HETATM   18  C   UNL     1      -1.494  -4.561   0.652  1.00  0.00     0.049 C 
HETATM   19  H   UNL     1      -1.743   4.804  -0.149  1.00  0.00     0.174 HD
ENDROOT
BRANCH  14  20
HETATM   20  C   UNL     1       0.991  -0.252   0.616  1.00  0.00     0.165 C 
BRANCH  20  21
HETATM   21  C   UNL     1       2.328  -0.421  -0.366  1.00  0.00     0.167 C 
BRANCH  21  22
HETATM   22  O   UNL     1       2.187  -1.953  -0.359  1.00  0.00    -0.391 OA
HETATM   23  H   UNL     1       2.024  -2.258   0.547  1.00  0.00     0.210 HD
ENDBRANCH  21  22
BRANCH  21  24
HETATM   24  C   UNL     1       3.378  -0.472   1.027  1.00  0.00     0.179 C 
BRANCH  24  25
HETATM   25  O   UNL     1       2.974   0.901   1.505  1.00  0.00    -0.390 OA
HETATM   26  H   UNL     1       2.992   1.522   0.760  1.00  0.00     0.210 HD
ENDBRANCH  24  25
BRANCH  24  27
HETATM   27  C   UNL     1       4.759   0.147   0.147  1.00  0.00     0.173 C 
BRANCH  27  28
HETATM   28  O   UNL     1       3.947   1.195  -0.633  1.00  0.00    -0.391 OA
HETATM   29  H   UNL     1       3.144   0.783  -0.986  1.00  0.00     0.210 HD
ENDBRANCH  27  28
BRANCH  27  30
HETATM   30  C   UNL     1       4.593  -0.990  -1.067  1.00  0.00     0.198 C 
BRANCH  30  31
HETATM   31  O   UNL     1       5.075  -2.114  -0.374  1.00  0.00    -0.398 OA
HETATM   32  H   UNL     1       5.967  -1.930  -0.041  1.00  0.00     0.209 HD
ENDBRANCH  30  31
ENDBRANCH  27  30
ENDBRANCH  24  27
ENDBRANCH  21  24
ENDBRANCH  20  21
ENDBRANCH  14  20
TORSDOF 9
