REMARK  13 active torsions:
REMARK  status: ('A' for Active; 'I' for Inactive)
REMARK    1  A    between atoms: O_1  and  C_2 
REMARK    2  A    between atoms: C_2  and  C_3 
REMARK    3  A    between atoms: C_5  and  C_6 
REMARK    4  A    between atoms: C_5  and  O_8 
REMARK    5  A    between atoms: C_6  and  O_7 
REMARK    6  A    between atoms: O_8  and  C_9 
REMARK    7  A    between atoms: C_11  and  C_12 
REMARK    8  A    between atoms: C_12  and  O_13 
REMARK    9  A    between atoms: C_14  and  O_15 
REMARK   10  A    between atoms: C_16  and  O_17 
REMARK   11  A    between atoms: C_18  and  O_19 
REMARK   12  A    between atoms: C_20  and  O_21 
REMARK   13  A    between atoms: C_22  and  O_23 
ROOT
HETATM    1  O   UNL     1       0.111  -0.542   0.007  1.00  0.00    -0.318 OA
ENDROOT
BRANCH   1   2
HETATM    2  C   UNL     1       1.248   0.011  -0.228  1.00  0.00     0.217 C 
HETATM    3  O   UNL     1       2.350  -0.866  -0.103  1.00  0.00    -0.341 OA
HETATM    4  C   UNL     1       3.119   0.097  -0.972  1.00  0.00     0.180 C 
HETATM    5  C   UNL     1       3.346   1.143   0.351  1.00  0.00     0.183 C 
HETATM    6  C   UNL     1       1.712   1.115   0.864  1.00  0.00     0.214 C 
BRANCH   4   7
HETATM    7  C   UNL     1       4.545  -0.675  -0.730  1.00  0.00     0.198 C 
BRANCH   7   8
HETATM    8  O   UNL     1       4.386  -1.286  -0.442  1.00  0.00    -0.398 OA
HETATM    9  H   UNL     1       5.200  -1.787  -0.276  1.00  0.00     0.209 HD
ENDBRANCH   7   8
ENDBRANCH   4   7
BRANCH   5  10
HETATM   10  O   UNL     1       3.081   2.341  -0.509  1.00  0.00    -0.390 OA
HETATM   11  H   UNL     1       2.279   2.191  -1.034  1.00  0.00     0.210 HD
ENDBRANCH   5  10
BRANCH   6  12
HETATM   12  O   UNL     1       2.049   0.100   1.938  1.00  0.00    -0.387 OA
HETATM   13  H   UNL     1       2.588  -0.609   1.554  1.00  0.00     0.210 HD
ENDBRANCH   6  12
BRANCH   2  14
HETATM   14  C   UNL     1       1.237   0.658  -1.469  1.00  0.00     0.235 C 
BRANCH  14  15
HETATM   15  O   UNL     1       0.617   1.476  -2.179  1.00  0.00    -0.395 OA
HETATM   16  H   UNL     1      -0.067   1.010  -2.685  1.00  0.00     0.209 HD
ENDBRANCH  14  15
ENDBRANCH   2  14
ENDBRANCH   1   2
BRANCH   1  17
HETATM   17  C   UNL     1      -0.815   0.211   0.949  1.00  0.00     0.295 C 
HETATM   18  O   UNL     1      -1.383   0.990  -0.210  1.00  0.00    -0.348 OA
HETATM   19  C   UNL     1      -2.711   1.551   0.182  1.00  0.00     0.179 C 
HETATM   20  C   UNL     1      -3.670   0.169  -0.200  1.00  0.00     0.180 C 
HETATM   21  C   UNL     1      -2.385  -0.836  -0.701  1.00  0.00     0.183 C 
HETATM   22  C   UNL     1      -2.027  -1.045   0.952  1.00  0.00     0.204 C 
BRANCH  19  23
HETATM   23  C   UNL     1      -2.661   1.218   1.794  1.00  0.00     0.198 C 
BRANCH  23  24
HETATM   24  O   UNL     1      -3.889   1.681   2.244  1.00  0.00    -0.398 OA
HETATM   25  H   UNL     1      -3.981   2.622   2.023  1.00  0.00     0.209 HD
ENDBRANCH  23  24
ENDBRANCH  19  23
BRANCH  20  26
HETATM   26  O   UNL     1      -3.870   0.678  -1.593  1.00  0.00    -0.390 OA
HETATM   27  H   UNL     1      -3.015   0.942  -1.966  1.00  0.00     0.210 HD
ENDBRANCH  20  26
BRANCH  21  28
HETATM   28  O   UNL     1      -3.286  -2.031  -0.670  1.00  0.00    -0.390 OA
HETATM   29  H   UNL     1      -3.829  -2.006   0.133  1.00  0.00     0.210 HD
ENDBRANCH  21  28
BRANCH  22  30
HETATM   30  O   UNL     1      -1.105  -2.198   0.726  1.00  0.00    -0.388 OA
HETATM   31  H   UNL     1      -0.495  -1.987   0.002  1.00  0.00     0.210 HD
ENDBRANCH  22  30
ENDBRANCH   1  17
TORSDOF 13
