REMARK  2 active torsions:
REMARK  status: ('A' for Active; 'I' for Inactive)
REMARK    1  A    between atoms: N_1  and  C_2 
REMARK    2  A    between atoms: C_6  and  O_7 
ROOT
HETATM    1  C   UNL     1      -0.259  -0.809  -0.692  1.00  0.00     0.287 C 
HETATM    2  C   UNL     1       0.624  -1.037   0.682  1.00  0.00     0.245 C 
HETATM    3  O   UNL     1       1.652  -0.159   0.208  1.00  0.00    -0.252 OA
HETATM    4  N   UNL     1       1.016   0.937  -0.324  1.00  0.00    -0.111 NA
HETATM    5  C   UNL     1      -0.279   0.772  -0.375  1.00  0.00     0.198 C 
ENDROOT
BRANCH   1   6
HETATM    6  N   UNL     1      -1.618  -1.124   0.047  1.00  0.00    -0.065 N 
HETATM    7  H   UNL     1      -1.821  -2.121  -0.025  1.00  0.00     0.275 HD
HETATM    8  H   UNL     1      -2.372  -0.591  -0.385  1.00  0.00     0.275 HD
HETATM    9  H   UNL     1      -1.538  -0.864   1.030  1.00  0.00     0.275 HD
ENDBRANCH   1   6
BRANCH   5  10
HETATM   10  O   UNL     1      -1.137   1.420   0.454  1.00  0.00    -0.345 OA
HETATM   11  H   UNL     1      -1.064   2.347   0.570  1.00  0.00     0.219 HD
ENDBRANCH   5  10
TORSDOF 2
