REMARK  5 active torsions:
REMARK  status: ('A' for Active; 'I' for Inactive)
REMARK    1  A    between atoms: C_2  and  C_3 
REMARK    2  A    between atoms: C_4  and  C_5 
REMARK    3  A    between atoms: C_14  and  C_15 
REMARK    4  A    between atoms: C_16  and  C_17 
REMARK    5  A    between atoms: C_19  and  C_20 
ROOT
HETATM    1  C   UNL     1      -1.461  -0.778   1.606  1.00  0.00     0.048 C 
HETATM    2  C   UNL     1      -0.477  -0.499   0.538  1.00  0.00    -0.062 C 
HETATM    3  C   UNL     1      -0.808  -0.746  -0.730  1.00  0.00     0.007 C 
ENDROOT
BRANCH   2   4
HETATM    4  C   UNL     1       0.652   0.424   0.710  1.00  0.00     0.007 C 
HETATM    5  C   UNL     1       1.882   0.043   0.947  1.00  0.00     0.009 C 
BRANCH   5   6
HETATM    6  C   UNL     1       3.049   0.474   0.186  1.00  0.00    -0.048 C 
HETATM    7  C   UNL     1       2.964   1.285  -0.869  1.00  0.00    -0.077 C 
HETATM    8  C   UNL     1       1.821   2.251  -0.866  1.00  0.00     0.044 C 
HETATM    9  C   UNL     1       3.752   1.006  -2.109  1.00  0.00     0.034 C 
HETATM   10  C   UNL     1       4.753  -0.083  -1.746  1.00  0.00     0.005 C 
HETATM   11  C   UNL     1       5.381   0.345  -0.430  1.00  0.00     0.014 C 
HETATM   12  C   UNL     1       4.392   0.039   0.677  1.00  0.00    -0.020 C 
HETATM   13  C   UNL     1       4.779   0.918   1.861  1.00  0.00     0.020 C 
HETATM   14  C   UNL     1       4.364  -1.420   1.030  1.00  0.00     0.020 C 
ENDBRANCH   5   6
ENDBRANCH   2   4
BRANCH   3  15
HETATM   15  C   UNL     1      -2.147  -1.238  -1.055  1.00  0.00     0.001 C 
HETATM   16  C   UNL     1      -3.237  -0.592  -0.684  1.00  0.00     0.007 C 
BRANCH  16  17
HETATM   17  C   UNL     1      -4.456  -1.333  -0.351  1.00  0.00    -0.056 C 
HETATM   18  C   UNL     1      -4.453  -2.809  -0.114  1.00  0.00     0.048 C 
HETATM   19  C   UNL     1      -5.510  -0.654   0.099  1.00  0.00     0.091 C 
BRANCH  19  20
HETATM   20  C   UNL     1      -5.382   0.763   0.446  1.00  0.00     0.199 C 
HETATM   21  O   UNL     1      -4.958   1.001   1.615  1.00  0.00    -0.644 OA
HETATM   22  O   UNL     1      -4.898   1.601  -0.563  1.00  0.00    -0.644 OA
ENDBRANCH  19  20
ENDBRANCH  16  17
ENDBRANCH   3  15
TORSDOF 5
