MODEL 1
REMARK VINA RESULT:      -5.9      0.000      0.000
REMARK  13 active torsions:
REMARK  status: ('A' for Active; 'I' for Inactive)
REMARK    1  A    between atoms: O_1  and  C_2 
REMARK    2  A    between atoms: C_2  and  C_3 
REMARK    3  A    between atoms: C_5  and  C_6 
REMARK    4  A    between atoms: C_5  and  O_8 
REMARK    5  A    between atoms: C_6  and  O_7 
REMARK    6  A    between atoms: O_8  and  C_9 
REMARK    7  A    between atoms: C_11  and  C_12 
REMARK    8  A    between atoms: C_12  and  O_13 
REMARK    9  A    between atoms: C_14  and  O_15 
REMARK   10  A    between atoms: C_16  and  O_17 
REMARK   11  A    between atoms: C_18  and  O_19 
REMARK   12  A    between atoms: C_20  and  O_21 
REMARK   13  A    between atoms: C_22  and  O_23 
ROOT
HETATM    1  O   UNL     1     -13.329 -10.079  22.002  1.00  0.00    -0.318 OA
ENDROOT
BRANCH   1   2
HETATM    2  C   UNL     1     -14.489  -9.532  22.105  1.00  0.00     0.217 C 
HETATM    3  O   UNL     1     -15.036  -9.586  23.408  1.00  0.00    -0.341 OA
HETATM    4  C   UNL     1     -15.915  -8.429  23.005  1.00  0.00     0.180 C 
HETATM    5  C   UNL     1     -16.941  -9.479  22.145  1.00  0.00     0.183 C 
HETATM    6  C   UNL     1     -15.682 -10.302  21.325  1.00  0.00     0.214 C 
BRANCH   4   7
HETATM    7  C   UNL     1     -16.815  -8.513  24.373  1.00  0.00     0.198 C 
BRANCH   7   8
HETATM    8  O   UNL     1     -16.458  -8.170  24.859  1.00  0.00    -0.398 OA
HETATM    9  H   UNL     1     -15.748  -7.660  24.439  1.00  0.00     0.209 HD
ENDBRANCH   7   8
ENDBRANCH   4   7
BRANCH   5  10
HETATM   10  O   UNL     1     -17.061  -8.495  21.022  1.00  0.00    -0.390 OA
HETATM   11  H   UNL     1     -16.311  -7.880  21.049  1.00  0.00     0.210 HD
ENDBRANCH   5  10
BRANCH   6  12
HETATM   12  O   UNL     1     -15.764 -11.447  22.315  1.00  0.00    -0.387 OA
HETATM   13  H   UNL     1     -16.199 -12.206  21.896  1.00  0.00     0.210 HD
ENDBRANCH   6  12
BRANCH   2  14
HETATM   14  C   UNL     1     -14.465  -8.225  21.605  1.00  0.00     0.235 C 
BRANCH  14  15
HETATM   15  O   UNL     1     -13.985  -7.488  20.720  1.00  0.00    -0.395 OA
HETATM   16  H   UNL     1     -13.032  -7.654  20.643  1.00  0.00     0.209 HD
ENDBRANCH  14  15
ENDBRANCH   2  14
ENDBRANCH   1   2
BRANCH   1  17
HETATM   17  C   UNL     1     -13.059 -10.830  20.708  1.00  0.00     0.295 C 
HETATM   18  O   UNL     1     -11.857  -9.961  20.439  1.00  0.00    -0.348 OA
HETATM   19  C   UNL     1     -10.959 -10.655  19.468  1.00  0.00     0.179 C 
HETATM   20  C   UNL     1     -10.085 -11.615  20.603  1.00  0.00     0.180 C 
HETATM   21  C   UNL     1     -10.924 -11.095  21.995  1.00  0.00     0.183 C 
HETATM   22  C   UNL     1     -12.191 -12.121  21.500  1.00  0.00     0.204 C 
BRANCH  19  23
HETATM   23  C   UNL     1     -11.964 -11.882  19.026  1.00  0.00     0.198 C 
BRANCH  23  24
HETATM   24  O   UNL     1     -11.736 -11.993  17.662  1.00  0.00    -0.398 OA
HETATM   25  H   UNL     1     -10.810 -11.776  17.469  1.00  0.00     0.209 HD
ENDBRANCH  23  24
ENDBRANCH  19  23
BRANCH  20  26
HETATM   26  O   UNL     1      -9.069 -10.526  20.759  1.00  0.00    -0.390 OA
HETATM   27  H   UNL     1      -9.008 -10.272  21.692  1.00  0.00     0.210 HD
ENDBRANCH  20  26
BRANCH  21  28
HETATM   28  O   UNL     1     -10.319 -12.207  22.795  1.00  0.00    -0.390 OA
HETATM   29  H   UNL     1     -10.496 -13.053  22.357  1.00  0.00     0.210 HD
ENDBRANCH  21  28
BRANCH  22  30
HETATM   30  O   UNL     1     -12.910 -12.057  22.808  1.00  0.00    -0.388 OA
HETATM   31  H   UNL     1     -13.678 -12.649  22.784  1.00  0.00     0.210 HD
ENDBRANCH  22  30
ENDBRANCH   1  17
TORSDOF 13
ENDMDL
MODEL 2
REMARK VINA RESULT:      -5.6      1.416      6.050
REMARK  13 active torsions:
REMARK  status: ('A' for Active; 'I' for Inactive)
REMARK    1  A    between atoms: O_1  and  C_2 
REMARK    2  A    between atoms: C_2  and  C_3 
REMARK    3  A    between atoms: C_5  and  C_6 
REMARK    4  A    between atoms: C_5  and  O_8 
REMARK    5  A    between atoms: C_6  and  O_7 
REMARK    6  A    between atoms: O_8  and  C_9 
REMARK    7  A    between atoms: C_11  and  C_12 
REMARK    8  A    between atoms: C_12  and  O_13 
REMARK    9  A    between atoms: C_14  and  O_15 
REMARK   10  A    between atoms: C_16  and  O_17 
REMARK   11  A    between atoms: C_18  and  O_19 
REMARK   12  A    between atoms: C_20  and  O_21 
REMARK   13  A    between atoms: C_22  and  O_23 
ROOT
HETATM    1  O   UNL     1     -13.905 -10.946  21.068  1.00  0.00    -0.318 OA
ENDROOT
BRANCH   1   2
HETATM    2  C   UNL     1     -12.633 -11.112  21.168  1.00  0.00     0.217 C 
HETATM    3  O   UNL     1     -12.105 -12.057  20.259  1.00  0.00    -0.341 OA
HETATM    4  C   UNL     1     -10.766 -11.393  20.463  1.00  0.00     0.180 C 
HETATM    5  C   UNL     1     -10.574 -12.189  21.955  1.00  0.00     0.183 C 
HETATM    6  C   UNL     1     -12.140 -11.818  22.541  1.00  0.00     0.214 C 
BRANCH   4   7
HETATM    7  C   UNL     1      -9.958 -12.551  19.631  1.00  0.00     0.198 C 
BRANCH   7   8
HETATM    8  O   UNL     1     -10.185 -12.511  18.976  1.00  0.00    -0.398 OA
HETATM    9  H   UNL     1      -9.496 -12.834  18.374  1.00  0.00     0.209 HD
ENDBRANCH   7   8
ENDBRANCH   4   7
BRANCH   5  10
HETATM   10  O   UNL     1     -10.018 -10.948  22.583  1.00  0.00    -0.390 OA
HETATM   11  H   UNL     1     -10.747 -10.377  22.871  1.00  0.00     0.210 HD
ENDBRANCH   5  10
BRANCH   6  12
HETATM   12  O   UNL     1     -12.630 -13.200  22.159  1.00  0.00    -0.387 OA
HETATM   13  H   UNL     1     -12.479 -13.811  22.896  1.00  0.00     0.210 HD
ENDBRANCH   6  12
BRANCH   2  14
HETATM   14  C   UNL     1     -11.965  -9.885  21.089  1.00  0.00     0.235 C 
BRANCH  14  15
HETATM   15  O   UNL     1     -11.885  -8.742  21.583  1.00  0.00    -0.395 OA
HETATM   16  H   UNL     1     -12.244  -8.094  20.957  1.00  0.00     0.209 HD
ENDBRANCH  14  15
ENDBRANCH   2  14
ENDBRANCH   1   2
BRANCH   1  17
HETATM   17  C   UNL     1     -14.610 -10.435  22.315  1.00  0.00     0.295 C 
HETATM   18  O   UNL     1     -15.056  -9.200  21.574  1.00  0.00    -0.348 OA
HETATM   19  C   UNL     1     -16.219  -8.594  22.288  1.00  0.00     0.179 C 
HETATM   20  C   UNL     1     -17.460  -9.548  21.565  1.00  0.00     0.180 C 
HETATM   21  C   UNL     1     -16.436 -10.513  20.599  1.00  0.00     0.183 C 
HETATM   22  C   UNL     1     -16.056 -11.369  22.023  1.00  0.00     0.204 C 
BRANCH  19  23
HETATM   23  C   UNL     1     -16.167  -9.494  23.667  1.00  0.00     0.198 C 
BRANCH  23  24
HETATM   24  O   UNL     1     -16.315  -8.541  24.664  1.00  0.00    -0.398 OA
HETATM   25  H   UNL     1     -15.452  -8.144  24.864  1.00  0.00     0.209 HD
ENDBRANCH  23  24
ENDBRANCH  19  23
BRANCH  20  26
HETATM   26  O   UNL     1     -17.613  -8.540  20.469  1.00  0.00    -0.390 OA
HETATM   27  H   UNL     1     -18.078  -7.761  20.810  1.00  0.00     0.210 HD
ENDBRANCH  20  26
BRANCH  21  28
HETATM   28  O   UNL     1     -17.564 -11.457  20.318  1.00  0.00    -0.390 OA
HETATM   29  H   UNL     1     -17.706 -12.029  21.088  1.00  0.00     0.210 HD
ENDBRANCH  21  28
BRANCH  22  30
HETATM   30  O   UNL     1     -15.405 -12.505  21.304  1.00  0.00    -0.388 OA
HETATM   31  H   UNL     1     -15.041 -13.131  21.950  1.00  0.00     0.210 HD
ENDBRANCH  22  30
ENDBRANCH   1  17
TORSDOF 13
ENDMDL
MODEL 3
REMARK VINA RESULT:      -5.5      1.494      5.850
REMARK  13 active torsions:
REMARK  status: ('A' for Active; 'I' for Inactive)
REMARK    1  A    between atoms: O_1  and  C_2 
REMARK    2  A    between atoms: C_2  and  C_3 
REMARK    3  A    between atoms: C_5  and  C_6 
REMARK    4  A    between atoms: C_5  and  O_8 
REMARK    5  A    between atoms: C_6  and  O_7 
REMARK    6  A    between atoms: O_8  and  C_9 
REMARK    7  A    between atoms: C_11  and  C_12 
REMARK    8  A    between atoms: C_12  and  O_13 
REMARK    9  A    between atoms: C_14  and  O_15 
REMARK   10  A    between atoms: C_16  and  O_17 
REMARK   11  A    between atoms: C_18  and  O_19 
REMARK   12  A    between atoms: C_20  and  O_21 
REMARK   13  A    between atoms: C_22  and  O_23 
ROOT
HETATM    1  O   UNL     1     -13.715 -10.375  21.911  1.00  0.00    -0.318 OA
ENDROOT
BRANCH   1   2
HETATM    2  C   UNL     1     -12.689 -10.837  21.287  1.00  0.00     0.217 C 
HETATM    3  O   UNL     1     -13.006 -11.541  20.103  1.00  0.00    -0.341 OA
HETATM    4  C   UNL     1     -11.588 -11.281  19.658  1.00  0.00     0.180 C 
HETATM    5  C   UNL     1     -11.021 -12.526  20.670  1.00  0.00     0.183 C 
HETATM    6  C   UNL     1     -11.899 -12.026  22.053  1.00  0.00     0.214 C 
BRANCH   4   7
HETATM    7  C   UNL     1     -11.716 -12.268  18.355  1.00  0.00     0.198 C 
BRANCH   7   8
HETATM    8  O   UNL     1     -11.704 -11.853  17.799  1.00  0.00    -0.398 OA
HETATM    9  H   UNL     1     -11.061 -12.191  17.156  1.00  0.00     0.209 HD
ENDBRANCH   7   8
ENDBRANCH   4   7
BRANCH   5  10
HETATM   10  O   UNL     1      -9.845 -11.696  21.087  1.00  0.00    -0.390 OA
HETATM   11  H   UNL     1      -9.680 -11.822  22.035  1.00  0.00     0.210 HD
ENDBRANCH   5  10
BRANCH   6  12
HETATM   12  O   UNL     1     -12.957 -13.078  21.783  1.00  0.00    -0.387 OA
HETATM   13  H   UNL     1     -13.393 -12.887  20.938  1.00  0.00     0.210 HD
ENDBRANCH   6  12
BRANCH   2  14
HETATM   14  C   UNL     1     -11.753  -9.822  21.054  1.00  0.00     0.235 C 
BRANCH  14  15
HETATM   15  O   UNL     1     -11.202  -8.820  21.552  1.00  0.00    -0.395 OA
HETATM   16  H   UNL     1     -11.757  -8.467  22.264  1.00  0.00     0.209 HD
ENDBRANCH  14  15
ENDBRANCH   2  14
ENDBRANCH   1   2
BRANCH   1  17
HETATM   17  C   UNL     1     -15.031 -10.415  21.151  1.00  0.00     0.295 C 
HETATM   18  O   UNL     1     -15.560 -11.465  22.094  1.00  0.00    -0.348 OA
HETATM   19  C   UNL     1     -17.052 -11.483  22.019  1.00  0.00     0.179 C 
HETATM   20  C   UNL     1     -17.357 -10.222  23.157  1.00  0.00     0.180 C 
HETATM   21  C   UNL     1     -15.725  -9.854  23.493  1.00  0.00     0.183 C 
HETATM   22  C   UNL     1     -15.697  -9.041  21.996  1.00  0.00     0.204 C 
BRANCH  19  23
HETATM   23  C   UNL     1     -17.251 -10.508  20.707  1.00  0.00     0.198 C 
BRANCH  23  24
HETATM   24  O   UNL     1     -18.130 -11.232  19.914  1.00  0.00    -0.398 OA
HETATM   25  H   UNL     1     -18.985 -11.313  20.368  1.00  0.00     0.209 HD
ENDBRANCH  23  24
ENDBRANCH  19  23
BRANCH  20  26
HETATM   26  O   UNL     1     -17.405 -11.222  24.270  1.00  0.00    -0.390 OA
HETATM   27  H   UNL     1     -16.507 -11.378  24.602  1.00  0.00     0.210 HD
ENDBRANCH  20  26
BRANCH  21  28
HETATM   28  O   UNL     1     -16.136  -8.592  24.186  1.00  0.00    -0.390 OA
HETATM   29  H   UNL     1     -17.059  -8.390  23.969  1.00  0.00     0.210 HD
ENDBRANCH  21  28
BRANCH  22  30
HETATM   30  O   UNL     1     -14.405  -8.342  22.268  1.00  0.00    -0.388 OA
HETATM   31  H   UNL     1     -14.482  -7.827  23.087  1.00  0.00     0.210 HD
ENDBRANCH  22  30
ENDBRANCH   1  17
TORSDOF 13
ENDMDL
