REMARK  4 active torsions:
REMARK  status: ('A' for Active; 'I' for Inactive)
REMARK    1  A    between atoms: CA_6  and  N_7 
REMARK       I    between atoms: N_7  and  C_8 
REMARK    2  A    between atoms: C_8  and  C_10 
REMARK    3  A    between atoms: C_10  and  C_11 
REMARK    4  A    between atoms: CA_20  and  C_21 
ROOT
HETATM    1  C   UNL     1      -4.234  -1.036   0.651  1.00  0.00     0.029 C 
HETATM    2  C   UNL     1      -3.755  -0.577   0.778  1.00  0.00     0.028 C 
HETATM    3  C   UNL     1      -3.967   0.103   2.129  1.00  0.00     0.029 C 
HETATM    4  S   UNL     1      -2.006  -0.893   0.607  1.00  0.00    -0.135 SA
HETATM    5  C   UNL     1      -1.699   0.363  -0.809  1.00  0.00     0.160 C 
HETATM    6  CA  UNL     1      -0.464   1.329  -0.154  1.00  0.00     0.199 C 
HETATM    7  C   UNL     1      -1.525   1.480   1.069  1.00  0.00     0.227 C 
HETATM    8  O   UNL     1      -1.336   1.922   2.193  1.00  0.00    -0.277 OA
HETATM    9  N   UNL     1      -2.519   1.335   0.026  1.00  0.00    -0.220 NA
HETATM   10  CA  UNL     1      -3.998   0.768  -0.192  1.00  0.00     0.187 C 
ENDROOT
BRANCH   6  11
HETATM   11  N   UNL     1       0.338   0.097   0.496  1.00  0.00    -0.346 N 
HETATM   12  C   UNL     1       1.537  -0.099  -0.275  1.00  0.00     0.222 C 
HETATM   13  O   UNL     1       1.567   0.196  -1.512  1.00  0.00    -0.273 OA
HETATM   14  H   UNL     1       0.058  -0.430   1.279  1.00  0.00     0.163 HD
BRANCH  12  15
HETATM   15  C   UNL     1       2.522  -1.167   0.087  1.00  0.00     0.141 C 
BRANCH  15  16
HETATM   16  C   UNL     1       3.813  -0.617   0.555  1.00  0.00    -0.050 C 
HETATM   17  C   UNL     1       4.557  -1.377   1.450  1.00  0.00     0.007 C 
HETATM   18  C   UNL     1       5.936  -1.508   1.349  1.00  0.00     0.001 C 
HETATM   19  C   UNL     1       6.617  -0.550   0.623  1.00  0.00     0.000 C 
HETATM   20  C   UNL     1       5.888   0.425  -0.045  1.00  0.00     0.001 C 
HETATM   21  C   UNL     1       4.503   0.367  -0.117  1.00  0.00     0.007 C 
ENDBRANCH  15  16
ENDBRANCH  12  15
ENDBRANCH   6  11
BRANCH  10  22
HETATM   22  C   UNL     1      -3.687  -0.084  -1.569  1.00  0.00     0.309 C 
HETATM   23  O   UNL     1      -3.580   0.705  -2.556  1.00  0.00    -0.261 OA
HETATM   24  OXT UNL     1      -4.508  -1.181  -1.720  1.00  0.00    -0.149 OA
ENDBRANCH  10  22
TORSDOF 4
