REMARK  2 active torsions:
REMARK  status: ('A' for Active; 'I' for Inactive)
REMARK    1  A    between atoms: C_2  and  O_3 
REMARK    2  A    between atoms: C_2  and  C_4 
ROOT
HETATM    1  C   UNL     1       0.262  -0.066  -0.112  1.00  0.00     0.126 C 
HETATM    2  C   UNL     1      -0.369   1.077   0.359  1.00  0.00     0.152 C 
HETATM    3  N   UNL     1      -1.718   1.172   0.270  1.00  0.00    -0.269 NA
HETATM    4  C   UNL     1      -2.364   0.132  -0.316  1.00  0.00     0.135 C 
HETATM    5  C   UNL     1      -1.837  -1.109   0.031  1.00  0.00     0.136 C 
HETATM    6  N   UNL     1      -0.497  -1.187  -0.167  1.00  0.00    -0.254 NA
ENDROOT
BRANCH   1   7
HETATM    7  C   UNL     1       1.724  -0.154  -0.137  1.00  0.00     0.185 C 
HETATM    8  N   UNL     1       2.441   0.468  -1.025  1.00  0.00    -0.276 NA
HETATM    9  H   UNL     1       3.422   0.385  -1.011  1.00  0.00     0.189 HD
BRANCH   7  10
HETATM   10  O   UNL     1       2.359  -0.332   1.096  1.00  0.00    -0.343 OA
HETATM   11  H   UNL     1       3.293  -0.395   1.137  1.00  0.00     0.219 HD
ENDBRANCH   7  10
ENDBRANCH   1   7
TORSDOF 2
