MODEL 1
REMARK VINA RESULT:      -6.4      0.000      0.000
REMARK  5 active torsions:
REMARK  status: ('A' for Active; 'I' for Inactive)
REMARK    1  A    between atoms: CA_6  and  N_7 
REMARK       I    between atoms: N_7  and  C_8 
REMARK    2  A    between atoms: C_8  and  CA_10 
REMARK    3  A    between atoms: CA_10  and  N_11 
REMARK    4  A    between atoms: CA_10  and  C_12 
REMARK    5  A    between atoms: CA_21  and  C_22 
ROOT
HETATM    1  N   UNL     1     -13.774 -10.725  21.801  1.00  0.00    -0.344 N 
HETATM    2  C   UNL     1     -14.598  -9.823  22.562  1.00  0.00     0.253 C 
HETATM    3  O   UNL     1     -14.893 -10.135  23.702  1.00  0.00    -0.271 OA
HETATM    4  H   UNL     1     -13.339 -10.473  20.954  1.00  0.00     0.163 HD
ENDROOT
BRANCH   1   5
HETATM    5  CA  UNL     1     -13.633 -12.161  22.453  1.00  0.00     0.198 C 
HETATM    6  C   UNL     1     -12.806 -12.967  21.220  1.00  0.00     0.150 C 
HETATM    7  S   UNL     1     -13.452 -12.217  19.606  1.00  0.00    -0.196 SA
HETATM    8  N   UNL     1     -11.697 -11.969  21.528  1.00  0.00    -0.221 NA
HETATM    9  C   UNL     1     -11.685 -12.001  19.174  1.00  0.00     0.000 A 
HETATM   10  C   UNL     1     -11.440 -12.139  19.270  1.00  0.00     0.158 A 
HETATM   11  C   UNL     1     -10.755 -13.109  19.519  1.00  0.00     0.007 C 
HETATM   12  CA  UNL     1     -11.688 -10.895  20.387  1.00  0.00     0.181 C 
HETATM   13  C   UNL     1     -12.102 -11.915  22.914  1.00  0.00     0.226 C 
HETATM   14  O   UNL     1     -11.506 -12.632  23.773  1.00  0.00    -0.277 OA
BRANCH  12  15
HETATM   15  C   UNL     1     -10.078 -10.752  20.408  1.00  0.00     0.308 C 
HETATM   16  O   UNL     1      -9.631  -9.767  19.729  1.00  0.00    -0.261 OA
HETATM   17  OXT UNL     1      -9.766 -10.582  21.768  1.00  0.00    -0.149 OA
ENDBRANCH  12  15
ENDBRANCH   1   5
BRANCH   2  18
HETATM   18  CA  UNL     1     -15.629  -8.942  21.693  1.00  0.00     0.307 C 
BRANCH  18  19
HETATM   19  N   UNL     1     -16.091  -8.096  22.950  1.00  0.00    -0.062 N 
HETATM   20  H1  UNL     1     -15.530  -7.246  23.013  1.00  0.00     0.275 HD
HETATM   21  H2  UNL     1     -15.965  -8.650  23.798  1.00  0.00     0.275 HD
HETATM   22  H3  UNL     1     -17.075  -7.848  22.850  1.00  0.00     0.275 HD
ENDBRANCH  18  19
BRANCH  18  23
HETATM   23  C   UNL     1     -16.801 -10.038  21.876  1.00  0.00    -0.019 C 
HETATM   24  C   UNL     1     -17.866  -9.726  22.625  1.00  0.00     0.010 C 
HETATM   25  C   UNL     1     -18.866 -10.696  22.654  1.00  0.00     0.001 C 
HETATM   26  C   UNL     1     -18.998 -11.537  21.555  1.00  0.00     0.000 C 
HETATM   27  C   UNL     1     -18.041 -11.536  20.550  1.00  0.00     0.001 C 
HETATM   28  C   UNL     1     -16.930 -10.719  20.679  1.00  0.00     0.010 C 
ENDBRANCH  18  23
ENDBRANCH   2  18
TORSDOF 5
ENDMDL
MODEL 2
REMARK VINA RESULT:      -6.3      2.716      6.286
REMARK  5 active torsions:
REMARK  status: ('A' for Active; 'I' for Inactive)
REMARK    1  A    between atoms: CA_6  and  N_7 
REMARK       I    between atoms: N_7  and  C_8 
REMARK    2  A    between atoms: C_8  and  CA_10 
REMARK    3  A    between atoms: CA_10  and  N_11 
REMARK    4  A    between atoms: CA_10  and  C_12 
REMARK    5  A    between atoms: CA_21  and  C_22 
ROOT
HETATM    1  N   UNL     1     -15.023 -12.048  21.619  1.00  0.00    -0.344 N 
HETATM    2  C   UNL     1     -14.104 -12.203  20.522  1.00  0.00     0.253 C 
HETATM    3  O   UNL     1     -14.548 -12.547  19.441  1.00  0.00    -0.271 OA
HETATM    4  H   UNL     1     -14.785 -11.600  22.462  1.00  0.00     0.163 HD
ENDROOT
BRANCH   1   5
HETATM    5  CA  UNL     1     -16.455 -12.665  21.340  1.00  0.00     0.198 C 
HETATM    6  C   UNL     1     -17.274 -12.150  22.724  1.00  0.00     0.150 C 
HETATM    7  S   UNL     1     -15.985 -12.168  24.110  1.00  0.00    -0.196 SA
HETATM    8  N   UNL     1     -17.015 -10.756  22.166  1.00  0.00    -0.221 NA
HETATM    9  C   UNL     1     -16.549 -10.459  24.454  1.00  0.00     0.000 A 
HETATM   10  C   UNL     1     -16.803 -10.319  24.392  1.00  0.00     0.158 A 
HETATM   11  C   UNL     1     -18.010 -10.193  24.382  1.00  0.00     0.007 C 
HETATM   12  CA  UNL     1     -15.860 -10.110  23.005  1.00  0.00     0.181 C 
HETATM   13  C   UNL     1     -17.070 -11.265  20.814  1.00  0.00     0.226 C 
HETATM   14  O   UNL     1     -18.148 -11.180  20.152  1.00  0.00    -0.277 OA
BRANCH  12  15
HETATM   15  C   UNL     1     -16.508  -8.632  22.930  1.00  0.00     0.308 C 
HETATM   16  O   UNL     1     -15.765  -7.709  23.409  1.00  0.00    -0.261 OA
HETATM   17  OXT UNL     1     -16.718  -8.418  21.557  1.00  0.00    -0.149 OA
ENDBRANCH  12  15
ENDBRANCH   1   5
BRANCH   2  18
HETATM   18  CA  UNL     1     -12.612 -12.646  20.939  1.00  0.00     0.307 C 
BRANCH  18  19
HETATM   19  N   UNL     1     -12.842 -12.283  22.463  1.00  0.00    -0.062 N 
HETATM   20  H1  UNL     1     -13.841 -12.171  22.638  1.00  0.00     0.275 HD
HETATM   21  H2  UNL     1     -12.359 -11.411  22.681  1.00  0.00     0.275 HD
HETATM   22  H3  UNL     1     -12.475 -13.031  23.050  1.00  0.00     0.275 HD
ENDBRANCH  18  19
BRANCH  18  23
HETATM   23  C   UNL     1     -12.021 -11.187  20.577  1.00  0.00    -0.019 C 
HETATM   24  C   UNL     1     -12.500 -10.118  21.226  1.00  0.00     0.010 C 
HETATM   25  C   UNL     1     -11.872  -8.915  20.915  1.00  0.00     0.001 C 
HETATM   26  C   UNL     1     -10.544  -8.953  20.501  1.00  0.00     0.000 C 
HETATM   27  C   UNL     1      -9.931 -10.166  20.220  1.00  0.00     0.001 C 
HETATM   28  C   UNL     1     -10.670 -11.333  20.315  1.00  0.00     0.010 C 
ENDBRANCH  18  23
ENDBRANCH   2  18
TORSDOF 5
ENDMDL
MODEL 3
REMARK VINA RESULT:      -6.0      2.697      6.748
REMARK  5 active torsions:
REMARK  status: ('A' for Active; 'I' for Inactive)
REMARK    1  A    between atoms: CA_6  and  N_7 
REMARK       I    between atoms: N_7  and  C_8 
REMARK    2  A    between atoms: C_8  and  CA_10 
REMARK    3  A    between atoms: CA_10  and  N_11 
REMARK    4  A    between atoms: CA_10  and  C_12 
REMARK    5  A    between atoms: CA_21  and  C_22 
ROOT
HETATM    1  N   UNL     1     -15.724 -11.033  22.841  1.00  0.00    -0.344 N 
HETATM    2  C   UNL     1     -14.358 -10.628  22.634  1.00  0.00     0.253 C 
HETATM    3  O   UNL     1     -13.770 -10.090  23.556  1.00  0.00    -0.271 OA
HETATM    4  H   UNL     1     -16.207 -11.632  22.227  1.00  0.00     0.163 HD
ENDROOT
BRANCH   1   5
HETATM    5  CA  UNL     1     -16.376 -10.424  24.150  1.00  0.00     0.198 C 
HETATM    6  C   UNL     1     -17.964 -10.210  23.617  1.00  0.00     0.150 C 
HETATM    7  S   UNL     1     -17.825  -9.765  21.783  1.00  0.00    -0.196 SA
HETATM    8  N   UNL     1     -17.962 -11.729  23.503  1.00  0.00    -0.221 NA
HETATM    9  C   UNL     1     -19.062 -11.091  21.521  1.00  0.00     0.000 A 
HETATM   10  C   UNL     1     -19.262 -11.213  21.703  1.00  0.00     0.158 A 
HETATM   11  C   UNL     1     -20.180 -11.188  22.497  1.00  0.00     0.007 C 
HETATM   12  CA  UNL     1     -17.848 -12.095  21.983  1.00  0.00     0.181 C 
HETATM   13  C   UNL     1     -17.031 -11.832  24.603  1.00  0.00     0.226 C 
HETATM   14  O   UNL     1     -17.461 -12.059  25.774  1.00  0.00    -0.277 OA
BRANCH  12  15
HETATM   15  C   UNL     1     -18.817 -13.381  22.125  1.00  0.00     0.308 C 
HETATM   16  O   UNL     1     -18.845 -14.132  21.093  1.00  0.00    -0.261 OA
HETATM   17  OXT UNL     1     -18.294 -14.086  23.222  1.00  0.00    -0.149 OA
ENDBRANCH  12  15
ENDBRANCH   1   5
BRANCH   2  18
HETATM   18  CA  UNL     1     -13.987 -10.224  21.119  1.00  0.00     0.307 C 
BRANCH  18  19
HETATM   19  N   UNL     1     -14.041 -11.726  20.620  1.00  0.00    -0.062 N 
HETATM   20  H1  UNL     1     -14.099 -11.744  19.601  1.00  0.00     0.275 HD
HETATM   21  H2  UNL     1     -14.861 -12.187  21.015  1.00  0.00     0.275 HD
HETATM   22  H3  UNL     1     -13.198 -12.215  20.921  1.00  0.00     0.275 HD
ENDBRANCH  18  19
BRANCH  18  23
HETATM   23  C   UNL     1     -12.404 -10.282  21.435  1.00  0.00    -0.019 C 
HETATM   24  C   UNL     1     -11.791 -11.472  21.444  1.00  0.00     0.010 C 
HETATM   25  C   UNL     1     -10.413 -11.419  21.638  1.00  0.00     0.001 C 
HETATM   26  C   UNL     1      -9.733 -10.278  21.224  1.00  0.00     0.000 C 
HETATM   27  C   UNL     1     -10.435  -9.154  20.812  1.00  0.00     0.001 C 
HETATM   28  C   UNL     1     -11.819  -9.167  20.861  1.00  0.00     0.010 C 
ENDBRANCH  18  23
ENDBRANCH   2  18
TORSDOF 5
ENDMDL
