MODEL 1
REMARK VINA RESULT:      -6.6      0.000      0.000
REMARK  5 active torsions:
REMARK  status: ('A' for Active; 'I' for Inactive)
REMARK    1  A    between atoms: CA_3  and  C_4 
REMARK    2  A    between atoms: CA_10  and  N_11 
REMARK       I    between atoms: N_11  and  C_12 
REMARK    3  A    between atoms: C_12  and  CA_14 
REMARK    4  A    between atoms: CA_14  and  N_15 
REMARK    5  A    between atoms: CA_14  and  C_16 
ROOT
HETATM    1  N   UNL     1     -15.001  -9.746  23.141  1.00  0.00    -0.343 N 
HETATM    2  C   UNL     1     -16.149  -8.927  23.206  1.00  0.00     0.253 C 
HETATM    3  O   UNL     1     -15.907  -7.680  23.146  1.00  0.00    -0.271 OA
HETATM    4  H   UNL     1     -14.613 -10.286  23.868  1.00  0.00     0.163 HD
ENDROOT
BRANCH   1   5
HETATM    5  CA  UNL     1     -14.465  -9.614  21.646  1.00  0.00     0.210 C 
HETATM    6  C   UNL     1     -14.739 -11.165  21.258  1.00  0.00     0.251 C 
HETATM    7  N   UNL     1     -13.327 -11.253  20.953  1.00  0.00    -0.293 N 
HETATM    8  O   UNL     1     -15.695 -11.429  20.490  1.00  0.00    -0.271 OA
HETATM    9  CA  UNL     1     -12.284 -12.193  20.705  1.00  0.00     0.118 C 
HETATM   10  C   UNL     1     -12.903 -10.188  21.957  1.00  0.00     0.187 C 
HETATM   11  C   UNL     1     -11.435 -12.626  21.635  1.00  0.00    -0.041 C 
HETATM   12  C   UNL     1     -10.612 -13.415  21.324  1.00  0.00     0.047 C 
HETATM   13  C   UNL     1     -11.939 -12.715  23.036  1.00  0.00     0.112 C 
HETATM   14  S   UNL     1     -13.140 -11.399  23.412  1.00  0.00    -0.136 SA
BRANCH   9  15
HETATM   15  C   UNL     1     -12.239 -12.686  19.323  1.00  0.00     0.227 C 
HETATM   16  O   UNL     1     -11.822 -11.944  18.381  1.00  0.00    -0.643 OA
HETATM   17  OXT UNL     1     -13.152 -13.661  18.900  1.00  0.00    -0.643 OA
ENDBRANCH   9  15
ENDBRANCH   1   5
BRANCH   2  18
HETATM   18  CA  UNL     1     -17.097  -9.139  24.518  1.00  0.00     0.307 C 
BRANCH  18  19
HETATM   19  N   UNL     1     -16.097 -10.191  25.189  1.00  0.00    -0.062 N 
HETATM   20  H1  UNL     1     -16.625 -10.997  25.524  1.00  0.00     0.275 HD
HETATM   21  H2  UNL     1     -15.615  -9.749  25.973  1.00  0.00     0.275 HD
HETATM   22  H3  UNL     1     -15.412 -10.497  24.497  1.00  0.00     0.275 HD
ENDBRANCH  18  19
BRANCH  18  23
HETATM   23  C   UNL     1     -17.927 -10.338  23.773  1.00  0.00    -0.019 C 
HETATM   24  C   UNL     1     -18.814 -10.975  24.609  1.00  0.00     0.010 C 
HETATM   25  C   UNL     1     -19.947 -11.540  24.040  1.00  0.00     0.001 C 
HETATM   26  C   UNL     1     -20.325 -11.192  22.748  1.00  0.00     0.000 C 
HETATM   27  C   UNL     1     -19.386 -10.620  21.897  1.00  0.00     0.001 C 
HETATM   28  C   UNL     1     -18.260 -10.026  22.460  1.00  0.00     0.010 C 
ENDBRANCH  18  23
ENDBRANCH   2  18
TORSDOF 5
ENDMDL
MODEL 2
REMARK VINA RESULT:      -6.4      2.765      3.885
REMARK  5 active torsions:
REMARK  status: ('A' for Active; 'I' for Inactive)
REMARK    1  A    between atoms: CA_3  and  C_4 
REMARK    2  A    between atoms: CA_10  and  N_11 
REMARK       I    between atoms: N_11  and  C_12 
REMARK    3  A    between atoms: C_12  and  CA_14 
REMARK    4  A    between atoms: CA_14  and  N_15 
REMARK    5  A    between atoms: CA_14  and  C_16 
ROOT
HETATM    1  N   UNL     1     -15.844 -12.033  22.838  1.00  0.00    -0.343 N 
HETATM    2  C   UNL     1     -16.897 -12.596  23.593  1.00  0.00     0.253 C 
HETATM    3  O   UNL     1     -16.626 -12.768  24.823  1.00  0.00    -0.271 OA
HETATM    4  H   UNL     1     -15.300 -12.480  22.150  1.00  0.00     0.163 HD
ENDROOT
BRANCH   1   5
HETATM    5  CA  UNL     1     -15.722 -10.523  23.334  1.00  0.00     0.210 C 
HETATM    6  C   UNL     1     -15.848  -9.875  21.853  1.00  0.00     0.251 C 
HETATM    7  N   UNL     1     -14.559  -9.266  22.100  1.00  0.00    -0.293 N 
HETATM    8  O   UNL     1     -16.914  -9.290  21.544  1.00  0.00    -0.271 OA
HETATM    9  CA  UNL     1     -13.481  -8.603  21.442  1.00  0.00     0.118 C 
HETATM   10  C   UNL     1     -14.064 -10.362  23.033  1.00  0.00     0.187 C 
HETATM   11  C   UNL     1     -12.373  -9.214  21.028  1.00  0.00    -0.041 C 
HETATM   12  C   UNL     1     -11.543  -8.572  20.484  1.00  0.00     0.047 C 
HETATM   13  C   UNL     1     -12.494 -10.637  20.596  1.00  0.00     0.112 C 
HETATM   14  S   UNL     1     -13.748 -11.537  21.563  1.00  0.00    -0.136 SA
BRANCH   9  15
HETATM   15  C   UNL     1     -13.707  -7.169  21.218  1.00  0.00     0.227 C 
HETATM   16  O   UNL     1     -13.304  -6.308  22.060  1.00  0.00    -0.643 OA
HETATM   17  OXT UNL     1     -14.818  -6.747  20.477  1.00  0.00    -0.643 OA
ENDBRANCH   9  15
ENDBRANCH   1   5
BRANCH   2  18
HETATM   18  CA  UNL     1     -17.468 -14.028  23.054  1.00  0.00     0.307 C 
BRANCH  18  19
HETATM   19  N   UNL     1     -16.652 -13.944  21.682  1.00  0.00    -0.062 N 
HETATM   20  H1  UNL     1     -17.304 -13.942  20.897  1.00  0.00     0.275 HD
HETATM   21  H2  UNL     1     -16.031 -14.750  21.606  1.00  0.00     0.275 HD
HETATM   22  H3  UNL     1     -16.099 -13.087  21.667  1.00  0.00     0.275 HD
ENDBRANCH  18  19
BRANCH  18  23
HETATM   23  C   UNL     1     -18.768 -13.298  22.376  1.00  0.00    -0.019 C 
HETATM   24  C   UNL     1     -19.559 -12.651  23.295  1.00  0.00     0.010 C 
HETATM   25  C   UNL     1     -20.287 -11.551  22.862  1.00  0.00     0.001 C 
HETATM   26  C   UNL     1     -19.975 -10.943  21.651  1.00  0.00     0.000 C 
HETATM   27  C   UNL     1     -19.238 -11.649  20.706  1.00  0.00     0.001 C 
HETATM   28  C   UNL     1     -18.483 -12.736  21.136  1.00  0.00     0.010 C 
ENDBRANCH  18  23
ENDBRANCH   2  18
TORSDOF 5
ENDMDL
MODEL 3
REMARK VINA RESULT:      -6.0     12.650     13.952
REMARK  5 active torsions:
REMARK  status: ('A' for Active; 'I' for Inactive)
REMARK    1  A    between atoms: CA_3  and  C_4 
REMARK    2  A    between atoms: CA_10  and  N_11 
REMARK       I    between atoms: N_11  and  C_12 
REMARK    3  A    between atoms: C_12  and  CA_14 
REMARK    4  A    between atoms: CA_14  and  N_15 
REMARK    5  A    between atoms: CA_14  and  C_16 
ROOT
HETATM    1  N   UNL     1     -12.479   1.187  25.948  1.00  0.00    -0.343 N 
HETATM    2  C   UNL     1     -13.338   1.603  26.988  1.00  0.00     0.253 C 
HETATM    3  O   UNL     1     -12.800   1.615  28.140  1.00  0.00    -0.271 OA
HETATM    4  H   UNL     1     -12.526   0.346  25.437  1.00  0.00     0.163 HD
ENDROOT
BRANCH   1   5
HETATM    5  CA  UNL     1     -11.418   2.364  25.773  1.00  0.00     0.210 C 
HETATM    6  C   UNL     1     -12.087   2.960  24.421  1.00  0.00     0.251 C 
HETATM    7  N   UNL     1     -10.807   2.732  23.786  1.00  0.00    -0.293 N 
HETATM    8  O   UNL     1     -12.712   4.045  24.492  1.00  0.00    -0.271 OA
HETATM    9  CA  UNL     1     -10.180   2.661  22.506  1.00  0.00     0.118 C 
HETATM   10  C   UNL     1     -10.422   1.553  24.670  1.00  0.00     0.187 C 
HETATM   11  C   UNL     1      -9.967   1.527  21.843  1.00  0.00    -0.041 C 
HETATM   12  C   UNL     1      -9.447   1.582  20.783  1.00  0.00     0.047 C 
HETATM   13  C   UNL     1     -10.950   0.422  22.039  1.00  0.00     0.112 C 
HETATM   14  S   UNL     1     -11.618   0.398  23.733  1.00  0.00    -0.136 SA
BRANCH   9  15
HETATM   15  C   UNL     1      -9.813   3.969  21.948  1.00  0.00     0.227 C 
HETATM   16  O   UNL     1      -8.796   4.597  22.377  1.00  0.00    -0.643 OA
HETATM   17  OXT UNL     1     -10.805   4.807  21.424  1.00  0.00    -0.643 OA
ENDBRANCH   9  15
ENDBRANCH   1   5
BRANCH   2  18
HETATM   18  CA  UNL     1     -14.722   0.751  27.147  1.00  0.00     0.307 C 
BRANCH  18  19
HETATM   19  N   UNL     1     -14.310  -0.309  26.023  1.00  0.00    -0.062 N 
HETATM   20  H1  UNL     1     -14.550  -1.249  26.337  1.00  0.00     0.275 HD
HETATM   21  H2  UNL     1     -13.305  -0.252  25.854  1.00  0.00     0.275 HD
HETATM   22  H3  UNL     1     -14.813  -0.101  25.159  1.00  0.00     0.275 HD
ENDBRANCH  18  19
BRANCH  18  23
HETATM   23  C   UNL     1     -15.477   1.695  26.042  1.00  0.00    -0.019 C 
HETATM   24  C   UNL     1     -16.576   1.090  25.481  1.00  0.00     0.010 C 
HETATM   25  C   UNL     1     -17.607   1.906  25.034  1.00  0.00     0.001 C 
HETATM   26  C   UNL     1     -17.664   3.236  25.433  1.00  0.00     0.000 C 
HETATM   27  C   UNL     1     -16.516   3.848  25.925  1.00  0.00     0.001 C 
HETATM   28  C   UNL     1     -15.489   3.039  26.402  1.00  0.00     0.010 C 
ENDBRANCH  18  23
ENDBRANCH   2  18
TORSDOF 5
ENDMDL
