MODEL 1
REMARK VINA RESULT:      -7.0      0.000      0.000
REMARK  6 active torsions:
REMARK  status: ('A' for Active; 'I' for Inactive)
REMARK    1  A    between atoms: C_2  and  C_3 
REMARK    2  A    between atoms: C_2  and  C_8 
REMARK    3  A    between atoms: C_3  and  C_4 
REMARK    4  A    between atoms: C_4  and  C_5 
REMARK    5  A    between atoms: C_13  and  O_14 
REMARK    6  A    between atoms: C_18  and  O_19 
ROOT
HETATM    1  C   UNL     1     -14.482  -9.816  21.125  1.00  0.00    -0.002 C 
HETATM    2  C   UNL     1     -13.844 -11.293  20.969  1.00  0.00     0.006 C 
HETATM    3  C   UNL     1     -14.763 -12.183  21.692  1.00  0.00     0.006 C 
HETATM    4  C   UNL     1     -16.047 -11.202  21.757  1.00  0.00     0.001 C 
HETATM    5  C   UNL     1     -16.792 -11.786  23.160  1.00  0.00     0.024 C 
HETATM    6  C   UNL     1     -17.253 -13.091  22.197  1.00  0.00     0.123 C 
HETATM    7  C   UNL     1     -18.702 -13.472  22.839  1.00  0.00     0.037 C 
HETATM    8  C   UNL     1     -18.775 -12.722  24.285  1.00  0.00    -0.001 C 
HETATM    9  C   UNL     1     -20.333 -13.276  24.266  1.00  0.00     0.037 C 
HETATM   10  C   UNL     1     -21.139 -12.250  25.236  1.00  0.00     0.118 C 
HETATM   11  C   UNL     1     -21.653 -11.334  23.965  1.00  0.00     0.032 C 
HETATM   12  C   UNL     1     -20.397 -11.232  23.060  1.00  0.00     0.012 C 
HETATM   13  C   UNL     1     -19.135 -11.200  23.839  1.00  0.00    -0.036 C 
HETATM   14  C   UNL     1     -19.070 -10.453  25.131  1.00  0.00     0.016 C 
HETATM   15  C   UNL     1     -18.007 -10.676  22.827  1.00  0.00     0.001 C 
HETATM   16  C   UNL     1     -17.222  -9.622  23.810  1.00  0.00     0.007 C 
HETATM   17  C   UNL     1     -16.053  -9.068  22.986  1.00  0.00     0.010 C 
HETATM   18  C   UNL     1     -15.157 -10.130  22.557  1.00  0.00    -0.036 C 
HETATM   19  C   UNL     1     -14.232 -10.763  23.460  1.00  0.00     0.016 C 
ENDROOT
BRANCH   1  20
HETATM   20  C   UNL     1     -13.088  -9.189  21.835  1.00  0.00    -0.013 C 
HETATM   21  C   UNL     1     -13.265  -7.788  21.044  1.00  0.00     0.010 C 
BRANCH  20  22
HETATM   22  C   UNL     1     -12.119  -9.822  20.707  1.00  0.00     0.015 C 
BRANCH  22  23
HETATM   23  C   UNL     1     -10.814  -9.048  20.813  1.00  0.00     0.113 C 
BRANCH  23  24
HETATM   24  C   UNL     1      -9.756 -10.083  20.714  1.00  0.00     0.172 C 
HETATM   25  O   UNL     1      -9.836 -11.026  19.879  1.00  0.00    -0.648 OA
HETATM   26  O   UNL     1      -8.896 -10.270  21.784  1.00  0.00    -0.648 OA
ENDBRANCH  23  24
ENDBRANCH  22  23
ENDBRANCH  20  22
ENDBRANCH   1  20
BRANCH   6  27
HETATM   27  O   UNL     1     -17.925 -12.250  21.099  1.00  0.00    -0.395 OA
HETATM   28  H   UNL     1     -18.750 -12.678  20.822  1.00  0.00     0.210 HD
ENDBRANCH   6  27
BRANCH  10  29
HETATM   29  O   UNL     1     -22.409 -13.094  25.196  1.00  0.00    -0.396 OA
HETATM   30  H   UNL     1     -22.438 -13.595  24.366  1.00  0.00     0.210 HD
ENDBRANCH  10  29
TORSDOF 6
ENDMDL
MODEL 2
REMARK VINA RESULT:      -6.6      1.447      2.420
REMARK  6 active torsions:
REMARK  status: ('A' for Active; 'I' for Inactive)
REMARK    1  A    between atoms: C_2  and  C_3 
REMARK    2  A    between atoms: C_2  and  C_8 
REMARK    3  A    between atoms: C_3  and  C_4 
REMARK    4  A    between atoms: C_4  and  C_5 
REMARK    5  A    between atoms: C_13  and  O_14 
REMARK    6  A    between atoms: C_18  and  O_19 
ROOT
HETATM    1  C   UNL     1     -13.898 -12.219  21.515  1.00  0.00    -0.002 C 
HETATM    2  C   UNL     1     -13.238 -11.547  22.829  1.00  0.00     0.006 C 
HETATM    3  C   UNL     1     -14.378 -11.101  23.641  1.00  0.00     0.006 C 
HETATM    4  C   UNL     1     -15.535 -11.989  22.942  1.00  0.00     0.001 C 
HETATM    5  C   UNL     1     -16.882 -11.009  23.245  1.00  0.00     0.024 C 
HETATM    6  C   UNL     1     -16.755 -11.576  24.828  1.00  0.00     0.123 C 
HETATM    7  C   UNL     1     -18.320 -11.618  25.283  1.00  0.00     0.037 C 
HETATM    8  C   UNL     1     -19.140 -10.729  24.191  1.00  0.00    -0.001 C 
HETATM    9  C   UNL     1     -20.456 -11.303  25.012  1.00  0.00     0.037 C 
HETATM   10  C   UNL     1     -21.667 -11.243  23.930  1.00  0.00     0.118 C 
HETATM   11  C   UNL     1     -21.476 -12.827  23.516  1.00  0.00     0.032 C 
HETATM   12  C   UNL     1     -19.935 -12.997  23.433  1.00  0.00     0.012 C 
HETATM   13  C   UNL     1     -19.253 -11.772  22.949  1.00  0.00    -0.036 C 
HETATM   14  C   UNL     1     -19.876 -10.941  21.875  1.00  0.00     0.016 C 
HETATM   15  C   UNL     1     -17.777 -12.231  22.521  1.00  0.00     0.001 C 
HETATM   16  C   UNL     1     -17.631 -11.410  21.108  1.00  0.00     0.007 C 
HETATM   17  C   UNL     1     -16.217 -11.707  20.593  1.00  0.00     0.010 C 
HETATM   18  C   UNL     1     -15.205 -11.272  21.543  1.00  0.00    -0.036 C 
HETATM   19  C   UNL     1     -14.861  -9.885  21.715  1.00  0.00     0.016 C 
ENDROOT
BRANCH   1  20
HETATM   20  C   UNL     1     -13.080 -11.186  20.464  1.00  0.00    -0.013 C 
HETATM   21  C   UNL     1     -13.047 -12.318  19.309  1.00  0.00     0.010 C 
BRANCH  20  22
HETATM   22  C   UNL     1     -11.629 -11.594  21.047  1.00  0.00     0.015 C 
BRANCH  22  23
HETATM   23  C   UNL     1     -10.622 -11.048  20.047  1.00  0.00     0.113 C 
BRANCH  23  24
HETATM   24  C   UNL     1      -9.941  -9.943  20.766  1.00  0.00     0.172 C 
HETATM   25  O   UNL     1      -9.143 -10.172  21.717  1.00  0.00    -0.648 OA
HETATM   26  O   UNL     1     -10.471  -8.665  20.691  1.00  0.00    -0.648 OA
ENDBRANCH  23  24
ENDBRANCH  22  23
ENDBRANCH  20  22
ENDBRANCH   1  20
BRANCH   6  27
HETATM   27  O   UNL     1     -16.786 -13.070  24.467  1.00  0.00    -0.395 OA
HETATM   28  H   UNL     1     -16.085 -13.262  23.825  1.00  0.00     0.210 HD
ENDBRANCH   6  27
BRANCH  10  29
HETATM   29  O   UNL     1     -22.718 -11.599  24.977  1.00  0.00    -0.396 OA
HETATM   30  H   UNL     1     -22.283 -11.984  25.754  1.00  0.00     0.210 HD
ENDBRANCH  10  29
TORSDOF 6
ENDMDL
MODEL 3
REMARK VINA RESULT:      -6.5      1.691      8.299
REMARK  6 active torsions:
REMARK  status: ('A' for Active; 'I' for Inactive)
REMARK    1  A    between atoms: C_2  and  C_3 
REMARK    2  A    between atoms: C_2  and  C_8 
REMARK    3  A    between atoms: C_3  and  C_4 
REMARK    4  A    between atoms: C_4  and  C_5 
REMARK    5  A    between atoms: C_13  and  O_14 
REMARK    6  A    between atoms: C_18  and  O_19 
ROOT
HETATM    1  C   UNL     1     -18.310 -10.818  22.917  1.00  0.00    -0.002 C 
HETATM    2  C   UNL     1     -18.031 -11.465  24.372  1.00  0.00     0.006 C 
HETATM    3  C   UNL     1     -16.628 -11.903  24.331  1.00  0.00     0.006 C 
HETATM    4  C   UNL     1     -16.141 -11.031  23.059  1.00  0.00     0.001 C 
HETATM    5  C   UNL     1     -14.881 -12.012  22.496  1.00  0.00     0.024 C 
HETATM    6  C   UNL     1     -14.023 -11.418  23.821  1.00  0.00     0.123 C 
HETATM    7  C   UNL     1     -12.504 -11.375  23.231  1.00  0.00     0.037 C 
HETATM    8  C   UNL     1     -12.511 -12.286  21.879  1.00  0.00    -0.001 C 
HETATM    9  C   UNL     1     -10.971 -11.704  21.723  1.00  0.00     0.037 C 
HETATM   10  C   UNL     1     -10.666 -11.787  20.129  1.00  0.00     0.118 C 
HETATM   11  C   UNL     1     -11.080 -10.209  19.891  1.00  0.00     0.032 C 
HETATM   12  C   UNL     1     -12.355 -10.034  20.758  1.00  0.00     0.012 C 
HETATM   13  C   UNL     1     -13.182 -11.264  20.808  1.00  0.00    -0.036 C 
HETATM   14  C   UNL     1     -13.335 -12.115  19.590  1.00  0.00     0.016 C 
HETATM   15  C   UNL     1     -14.618 -10.806  21.358  1.00  0.00     0.001 C 
HETATM   16  C   UNL     1     -15.587 -11.649  20.338  1.00  0.00     0.007 C 
HETATM   17  C   UNL     1     -17.025 -11.355  20.784  1.00  0.00     0.010 C 
HETATM   18  C   UNL     1     -17.249 -11.769  22.160  1.00  0.00    -0.036 C 
HETATM   19  C   UNL     1     -17.409 -13.152  22.527  1.00  0.00     0.016 C 
ENDROOT
BRANCH   1  20
HETATM   20  C   UNL     1     -19.591 -11.865  22.596  1.00  0.00    -0.013 C 
HETATM   21  C   UNL     1     -20.243 -10.813  21.553  1.00  0.00     0.010 C 
BRANCH  20  22
HETATM   22  C   UNL     1     -20.465 -11.324  23.844  1.00  0.00     0.015 C 
BRANCH  22  23
HETATM   23  C   UNL     1     -21.706 -12.202  23.880  1.00  0.00     0.113 C 
BRANCH  23  24
HETATM   24  C   UNL     1     -22.738 -11.363  24.539  1.00  0.00     0.172 C 
HETATM   25  O   UNL     1     -23.912 -11.288  24.084  1.00  0.00    -0.648 OA
HETATM   26  O   UNL     1     -22.335 -10.349  25.393  1.00  0.00    -0.648 OA
ENDBRANCH  23  24
ENDBRANCH  22  23
ENDBRANCH  20  22
ENDBRANCH   1  20
BRANCH   6  27
HETATM   27  O   UNL     1     -14.228  -9.931  23.492  1.00  0.00    -0.395 OA
HETATM   28  H   UNL     1     -15.167  -9.704  23.587  1.00  0.00     0.210 HD
ENDBRANCH   6  27
BRANCH  10  29
HETATM   29  O   UNL     1      -9.198 -11.418  20.315  1.00  0.00    -0.396 OA
HETATM   30  H   UNL     1      -8.668 -12.227  20.389  1.00  0.00     0.210 HD
ENDBRANCH  10  29
TORSDOF 6
ENDMDL
