REMARK  4 active torsions:
REMARK  status: ('A' for Active; 'I' for Inactive)
REMARK    1  A    between atoms: N_1  and  CA_2 
REMARK    2  A    between atoms: CA_2  and  CB_3 
REMARK    3  A    between atoms: CA_2  and  C_10 
REMARK    4  A    between atoms: CB_3  and  CG_4 
ROOT
ATOM      1  CA  PHE A   1       1.409   0.434  -0.551  1.00  0.00     0.289 C 
ENDROOT
BRANCH   1   2
ATOM      2  N   PHE A   1       1.018  -0.839  -1.447  1.00  0.00    -0.066 N 
ATOM      3  H1  PHE A   1       0.116  -0.677  -1.894  1.00  0.00     0.275 HD
ATOM      4  H2  PHE A   1       0.959  -1.667  -0.854  1.00  0.00     0.275 HD
ATOM      5  H3  PHE A   1       1.731  -0.983  -2.162  1.00  0.00     0.275 HD
ENDBRANCH   1   2
BRANCH   1   6
ATOM      6  CB  PHE A   1       0.614  -0.214   0.772  1.00  0.00     0.081 C 
BRANCH   6   7
ATOM      7  CG  PHE A   1      -0.796  -0.048   0.408  1.00  0.00    -0.056 A 
ATOM      8  CD1 PHE A   1      -1.671  -1.046   0.779  1.00  0.00     0.007 A 
ATOM      9  CE1 PHE A   1      -3.026  -0.780   0.708  1.00  0.00     0.001 A 
ATOM     10  CZ  PHE A   1      -3.465   0.415   0.199  1.00  0.00     0.000 A 
ATOM     11  CE2 PHE A   1      -2.610   1.333  -0.368  1.00  0.00     0.001 A 
ATOM     12  CD2 PHE A   1      -1.260   1.001  -0.334  1.00  0.00     0.007 A 
ENDBRANCH   6   7
ENDBRANCH   1   6
BRANCH   1  13
ATOM     13  C   PHE A   1       2.825  -0.249  -0.073  1.00  0.00     0.320 C 
ATOM     14  O   PHE A   1       3.519  -0.651  -1.037  1.00  0.00    -0.260 OA
ATOM     15  OXT PHE A   1       3.442   0.643   0.792  1.00  0.00    -0.148 OA
ENDBRANCH   1  13
TORSDOF 4
