MODEL 1
REMARK VINA RESULT:      -4.6      0.000      0.000
REMARK  2 active torsions:
REMARK  status: ('A' for Active; 'I' for Inactive)
REMARK    1  A    between atoms: C_2  and  CA_4 
REMARK    2  A    between atoms: CG_6  and  OD_7 
ROOT
ATOM      1  CA  HYP A   1     -14.717  -3.662  21.359  1.00  0.00     0.288 C 
ATOM      2  CB  HYP A   1     -15.827  -2.917  22.293  1.00  0.00     0.077 C 
ATOM      3  CG  HYP A   1     -16.698  -2.182  21.106  1.00  0.00     0.146 C 
ATOM      4  CD  HYP A   1     -16.100  -3.094  19.871  1.00  0.00     0.265 C 
ATOM      5  N   HYP A   1     -15.879  -4.338  20.535  1.00  0.00    -0.059 N 
ATOM      6  H1  HYP A   1     -15.573  -5.093  19.921  1.00  0.00     0.278 HD
ATOM      7  H2  HYP A   1     -16.642  -4.823  21.007  1.00  0.00     0.278 HD
ENDROOT
BRANCH   1   8
ATOM      8  C   HYP A   1     -14.613  -4.933  22.355  1.00  0.00     0.204 C 
ATOM      9  O   HYP A   1     -15.324  -5.514  22.481  1.00  0.00    -0.646 OA
ATOM     10  OXT HYP A   1     -13.354  -5.117  22.924  1.00  0.00    -0.646 OA
ENDBRANCH   1   8
BRANCH   3  11
ATOM     11  OD  HYP A   1     -17.852  -3.154  21.302  1.00  0.00    -0.394 OA
ATOM     12  HD  HYP A   1     -18.690  -2.702  21.117  1.00  0.00     0.210 HD
ENDBRANCH   3  11
TORSDOF 2
ENDMDL
MODEL 2
REMARK VINA RESULT:      -4.4      3.683      5.432
REMARK  2 active torsions:
REMARK  status: ('A' for Active; 'I' for Inactive)
REMARK    1  A    between atoms: C_2  and  CA_4 
REMARK    2  A    between atoms: CG_6  and  OD_7 
ROOT
ATOM      1  CA  HYP A   1     -13.822  -7.417  21.039  1.00  0.00     0.288 C 
ATOM      2  CB  HYP A   1     -14.655  -8.665  21.677  1.00  0.00     0.077 C 
ATOM      3  CG  HYP A   1     -13.548  -9.858  21.429  1.00  0.00     0.146 C 
ATOM      4  CD  HYP A   1     -12.276  -8.848  21.152  1.00  0.00     0.265 C 
ATOM      5  N   HYP A   1     -12.613  -7.747  21.996  1.00  0.00    -0.059 N 
ATOM      6  H1  HYP A   1     -11.901  -7.018  22.039  1.00  0.00     0.278 HD
ATOM      7  H2  HYP A   1     -12.758  -7.880  22.996  1.00  0.00     0.278 HD
ENDROOT
BRANCH   1   8
ATOM      8  C   HYP A   1     -14.437  -6.359  22.096  1.00  0.00     0.204 C 
ATOM      9  O   HYP A   1     -15.297  -6.447  22.431  1.00  0.00    -0.646 OA
ATOM     10  OXT HYP A   1     -13.542  -5.374  22.511  1.00  0.00    -0.646 OA
ENDBRANCH   1   8
BRANCH   3  11
ATOM     11  OD  HYP A   1     -13.219  -9.910  22.914  1.00  0.00    -0.394 OA
ATOM     12  HD  HYP A   1     -13.000 -10.821  23.164  1.00  0.00     0.210 HD
ENDBRANCH   3  11
TORSDOF 2
ENDMDL
MODEL 3
REMARK VINA RESULT:      -4.1      6.537      8.346
REMARK  2 active torsions:
REMARK  status: ('A' for Active; 'I' for Inactive)
REMARK    1  A    between atoms: C_2  and  CA_4 
REMARK    2  A    between atoms: CG_6  and  OD_7 
ROOT
ATOM      1  CA  HYP A   1     -11.602 -10.135  20.307  1.00  0.00     0.288 C 
ATOM      2  CB  HYP A   1     -11.028 -10.556  21.774  1.00  0.00     0.077 C 
ATOM      3  CG  HYP A   1      -9.767 -11.497  21.289  1.00  0.00     0.146 C 
ATOM      4  CD  HYP A   1      -9.743 -10.954  19.734  1.00  0.00     0.265 C 
ATOM      5  N   HYP A   1     -10.171  -9.603  19.912  1.00  0.00    -0.059 N 
ATOM      6  H1  HYP A   1     -10.154  -9.042  19.060  1.00  0.00     0.278 HD
ATOM      7  H2  HYP A   1      -9.661  -8.968  20.524  1.00  0.00     0.278 HD
ENDROOT
BRANCH   1   8
ATOM      8  C   HYP A   1     -12.063  -8.671  20.817  1.00  0.00     0.204 C 
ATOM      9  O   HYP A   1     -11.846  -7.901  20.350  1.00  0.00    -0.646 OA
ATOM     10  OXT HYP A   1     -12.871  -8.686  21.952  1.00  0.00    -0.646 OA
ENDBRANCH   1   8
BRANCH   3  11
ATOM     11  OD  HYP A   1      -8.765 -10.431  21.706  1.00  0.00    -0.394 OA
ATOM     12  HD  HYP A   1      -8.664 -10.443  22.671  1.00  0.00     0.210 HD
ENDBRANCH   3  11
TORSDOF 2
ENDMDL
