REMARK  2 active torsions:
REMARK  status: ('A' for Active; 'I' for Inactive)
REMARK    1  A    between atoms: C_2  and  CA_4 
REMARK    2  A    between atoms: CG_6  and  OD_7 
ROOT
ATOM      1  CA  HYP A   1       0.334  -0.754  -0.508  1.00  0.00     0.288 C 
ATOM      2  CB  HYP A   1      -0.425   0.638  -0.888  1.00  0.00     0.077 C 
ATOM      3  CG  HYP A   1      -1.968   0.185  -0.538  1.00  0.00     0.146 C 
ATOM      4  CD  HYP A   1      -1.555  -1.141   0.348  1.00  0.00     0.265 C 
ATOM      5  N   HYP A   1      -0.322  -0.709   0.925  1.00  0.00    -0.059 N 
ATOM      6  H1  HYP A   1       0.082  -1.366   1.592  1.00  0.00     0.278 HD
ATOM      7  H2  HYP A   1      -0.278   0.135   1.495  1.00  0.00     0.278 HD
ENDROOT
BRANCH   1   8
ATOM      8  C   HYP A   1       1.657   0.015   0.017  1.00  0.00     0.204 C 
ATOM      9  O   HYP A   1       2.017  -0.149   0.855  1.00  0.00    -0.646 OA
ATOM     10  OXT HYP A   1       2.240   0.863  -0.923  1.00  0.00    -0.646 OA
ENDBRANCH   1   8
BRANCH   3  11
ATOM     11  OD  HYP A   1      -1.977   1.052   0.712  1.00  0.00    -0.394 OA
ATOM     12  HD  HYP A   1      -1.168   0.891   1.223  1.00  0.00     0.210 HD
ENDBRANCH   3  11
TORSDOF 2
