REMARK  2 active torsions:
REMARK  status: ('A' for Active; 'I' for Inactive)
REMARK    1  A    between atoms: C_2  and  CA_4 
REMARK    2  A    between atoms: CG_6  and  OD_7 
ROOT
ATOM      1  CA  HYP A   1       0.448  -0.357  -0.629  1.00  0.00     0.289 C 
ATOM      2  CB  HYP A   1      -0.574   0.898  -0.351  1.00  0.00     0.076 C 
ATOM      3  CG  HYP A   1      -1.679   0.157   0.608  1.00  0.00     0.146 C 
ATOM      4  CD  HYP A   1      -1.428  -1.284  -0.159  1.00  0.00     0.264 C 
ATOM      5  N   HYP A   1      -0.137  -1.249   0.534  1.00  0.00    -0.059 N 
ATOM      6  H1  HYP A   1       0.312  -2.160   0.630  1.00  0.00     0.278 HD
ATOM      7  H2  HYP A   1      -0.076  -0.942   1.505  1.00  0.00     0.278 HD
ENDROOT
BRANCH   1   8
ATOM      8  C   HYP A   1       1.630   0.221   0.321  1.00  0.00     0.320 C 
ATOM      9  O   HYP A   1       1.764   1.343   0.061  1.00  0.00    -0.260 OA
ATOM     10  OXT HYP A   1       2.812  -0.232  -0.261  1.00  0.00    -0.148 OA
ENDBRANCH   1   8
BRANCH   3  11
ATOM     11  OD  HYP A   1      -2.836   0.503  -0.319  1.00  0.00    -0.394 OA
ATOM     12  HD  HYP A   1      -2.583   0.314  -1.236  1.00  0.00     0.210 HD
ENDBRANCH   3  11
TORSDOF 2
