MODEL 1
REMARK VINA RESULT:      -6.5      0.000      0.000
REMARK  2 active torsions:
REMARK  status: ('A' for Active; 'I' for Inactive)
REMARK    1  A    between atoms: C_2  and  C_3 
REMARK    2  A    between atoms: C_2  and  C_9 
ROOT
HETATM    1  O   UNL     1     -15.545  -7.096  22.868  1.00  0.00    -0.287 OA
HETATM    2  C   UNL     1     -15.528  -8.035  22.016  1.00  0.00     0.192 C 
ENDROOT
BRANCH   2   3
HETATM    3  C   UNL     1     -16.436  -9.151  22.311  1.00  0.00     0.015 A 
HETATM    4  C   UNL     1     -16.701  -9.459  23.636  1.00  0.00     0.015 A 
HETATM    5  C   UNL     1     -17.821 -10.159  24.014  1.00  0.00     0.001 A 
HETATM    6  C   UNL     1     -18.771 -10.527  23.081  1.00  0.00     0.000 A 
HETATM    7  C   UNL     1     -18.580 -10.148  21.757  1.00  0.00     0.001 A 
HETATM    8  C   UNL     1     -17.435  -9.471  21.402  1.00  0.00     0.015 A 
ENDBRANCH   2   3
BRANCH   2   9
HETATM    9  C   UNL     1     -14.191  -8.375  21.514  1.00  0.00     0.015 C 
HETATM   10  C   UNL     1     -13.711  -9.668  21.670  1.00  0.00     0.015 C 
HETATM   11  C   UNL     1     -12.627 -10.032  20.885  1.00  0.00     0.001 C 
HETATM   12  C   UNL     1     -11.637  -9.071  20.713  1.00  0.00     0.000 C 
HETATM   13  C   UNL     1     -12.096  -7.769  20.555  1.00  0.00     0.001 C 
HETATM   14  C   UNL     1     -13.414  -7.441  20.842  1.00  0.00     0.015 C 
ENDBRANCH   2   9
TORSDOF 2
ENDMDL
MODEL 2
REMARK VINA RESULT:      -6.3      0.456      5.185
REMARK  2 active torsions:
REMARK  status: ('A' for Active; 'I' for Inactive)
REMARK    1  A    between atoms: C_2  and  C_3 
REMARK    2  A    between atoms: C_2  and  C_9 
ROOT
HETATM    1  O   UNL     1     -15.663  -7.052  22.740  1.00  0.00    -0.287 OA
HETATM    2  C   UNL     1     -15.442  -8.283  22.531  1.00  0.00     0.192 C 
ENDROOT
BRANCH   2   3
HETATM    3  C   UNL     1     -14.351  -8.561  21.588  1.00  0.00     0.015 A 
HETATM    4  C   UNL     1     -13.642  -7.494  21.058  1.00  0.00     0.015 A 
HETATM    5  C   UNL     1     -12.379  -7.642  20.538  1.00  0.00     0.001 A 
HETATM    6  C   UNL     1     -11.735  -8.862  20.586  1.00  0.00     0.000 A 
HETATM    7  C   UNL     1     -12.382  -9.929  21.198  1.00  0.00     0.001 A 
HETATM    8  C   UNL     1     -13.658  -9.760  21.687  1.00  0.00     0.015 A 
ENDBRANCH   2   3
BRANCH   2   9
HETATM    9  C   UNL     1     -16.652  -9.106  22.415  1.00  0.00     0.015 C 
HETATM   10  C   UNL     1     -17.271  -9.242  21.180  1.00  0.00     0.015 C 
HETATM   11  C   UNL     1     -18.173 -10.286  21.044  1.00  0.00     0.001 C 
HETATM   12  C   UNL     1     -19.005 -10.531  22.131  1.00  0.00     0.000 C 
HETATM   13  C   UNL     1     -18.406 -10.401  23.378  1.00  0.00     0.001 C 
HETATM   14  C   UNL     1     -17.165  -9.791  23.508  1.00  0.00     0.015 C 
ENDBRANCH   2   9
TORSDOF 2
ENDMDL
MODEL 3
REMARK VINA RESULT:      -5.7      2.042      3.469
REMARK  2 active torsions:
REMARK  status: ('A' for Active; 'I' for Inactive)
REMARK    1  A    between atoms: C_2  and  C_3 
REMARK    2  A    between atoms: C_2  and  C_9 
ROOT
HETATM    1  O   UNL     1     -18.281 -11.055  20.249  1.00  0.00    -0.287 OA
HETATM    2  C   UNL     1     -17.813 -10.883  21.415  1.00  0.00     0.192 C 
ENDROOT
BRANCH   2   3
HETATM    3  C   UNL     1     -18.822 -10.638  22.454  1.00  0.00     0.015 A 
HETATM    4  C   UNL     1     -20.096 -11.154  22.277  1.00  0.00     0.015 A 
HETATM    5  C   UNL     1     -20.954 -11.359  23.331  1.00  0.00     0.001 A 
HETATM    6  C   UNL     1     -20.548 -11.118  24.628  1.00  0.00     0.000 A 
HETATM    7  C   UNL     1     -19.243 -10.691  24.845  1.00  0.00     0.001 A 
HETATM    8  C   UNL     1     -18.413 -10.468  23.770  1.00  0.00     0.015 A 
ENDBRANCH   2   3
BRANCH   2   9
HETATM    9  C   UNL     1     -16.591 -10.071  21.465  1.00  0.00     0.015 C 
HETATM   10  C   UNL     1     -16.667  -8.705  21.226  1.00  0.00     0.015 C 
HETATM   11  C   UNL     1     -15.584  -7.939  21.626  1.00  0.00     0.001 C 
HETATM   12  C   UNL     1     -14.324  -8.487  21.412  1.00  0.00     0.000 C 
HETATM   13  C   UNL     1     -14.225  -9.854  21.645  1.00  0.00     0.001 C 
HETATM   14  C   UNL     1     -15.365 -10.633  21.793  1.00  0.00     0.015 C 
ENDBRANCH   2   9
TORSDOF 2
ENDMDL
