MODEL 1
REMARK VINA RESULT:      -4.6      0.000      0.000
REMARK  2 active torsions:
REMARK  status: ('A' for Active; 'I' for Inactive)
REMARK    1  A    between atoms: C_2  and  CA_4 
REMARK    2  A    between atoms: CG_6  and  OD_7 
ROOT
ATOM      1  CA  HYP A   1     -14.763  -3.621  21.278  1.00  0.00     0.289 C 
ATOM      2  CB  HYP A   1     -15.683  -2.539  22.103  1.00  0.00     0.076 C 
ATOM      3  CG  HYP A   1     -17.097  -2.685  21.284  1.00  0.00     0.146 C 
ATOM      4  CD  HYP A   1     -16.290  -3.040  19.888  1.00  0.00     0.264 C 
ATOM      5  N   HYP A   1     -15.993  -4.306  20.565  1.00  0.00    -0.059 N 
ATOM      6  H1  HYP A   1     -15.742  -5.069  19.937  1.00  0.00     0.278 HD
ATOM      7  H2  HYP A   1     -16.710  -4.784  21.112  1.00  0.00     0.278 HD
ENDROOT
BRANCH   1   8
ATOM      8  C   HYP A   1     -14.756  -4.723  22.469  1.00  0.00     0.320 C 
ATOM      9  O   HYP A   1     -13.652  -5.029  22.649  1.00  0.00    -0.260 OA
ATOM     10  OXT HYP A   1     -15.165  -5.909  21.862  1.00  0.00    -0.148 OA
ENDBRANCH   1   8
BRANCH   3  11
ATOM     11  OD  HYP A   1     -17.143  -1.204  20.937  1.00  0.00    -0.394 OA
ATOM     12  HD  HYP A   1     -17.517  -1.092  20.049  1.00  0.00     0.210 HD
ENDBRANCH   3  11
TORSDOF 2
ENDMDL
MODEL 2
REMARK VINA RESULT:      -4.3      2.266      2.959
REMARK  2 active torsions:
REMARK  status: ('A' for Active; 'I' for Inactive)
REMARK    1  A    between atoms: C_2  and  CA_4 
REMARK    2  A    between atoms: CG_6  and  OD_7 
ROOT
ATOM      1  CA  HYP A   1     -15.606  -2.297  22.521  1.00  0.00     0.289 C 
ATOM      2  CB  HYP A   1     -15.103  -3.471  21.489  1.00  0.00     0.076 C 
ATOM      3  CG  HYP A   1     -15.950  -3.052  20.148  1.00  0.00     0.146 C 
ATOM      4  CD  HYP A   1     -17.180  -2.451  21.072  1.00  0.00     0.264 C 
ATOM      5  N   HYP A   1     -16.217  -1.390  21.383  1.00  0.00    -0.059 N 
ATOM      6  H1  HYP A   1     -16.641  -0.525  21.719  1.00  0.00     0.278 HD
ATOM      7  H2  HYP A   1     -15.621  -0.998  20.654  1.00  0.00     0.278 HD
ENDROOT
BRANCH   1   8
ATOM      8  C   HYP A   1     -14.199  -1.488  22.499  1.00  0.00     0.320 C 
ATOM      9  O   HYP A   1     -13.348  -2.276  22.515  1.00  0.00    -0.260 OA
ATOM     10  OXT HYP A   1     -14.030  -1.027  23.802  1.00  0.00    -0.148 OA
ENDBRANCH   1   8
BRANCH   3  11
ATOM     11  OD  HYP A   1     -16.625  -4.413  20.051  1.00  0.00    -0.394 OA
ATOM     12  HD  HYP A   1     -17.133  -4.463  19.226  1.00  0.00     0.210 HD
ENDBRANCH   3  11
TORSDOF 2
ENDMDL
MODEL 3
REMARK VINA RESULT:      -4.2      2.130      2.840
REMARK  2 active torsions:
REMARK  status: ('A' for Active; 'I' for Inactive)
REMARK    1  A    between atoms: C_2  and  CA_4 
REMARK    2  A    between atoms: CG_6  and  OD_7 
ROOT
ATOM      1  CA  HYP A   1     -15.948  -2.765  20.204  1.00  0.00     0.289 C 
ATOM      2  CB  HYP A   1     -14.923  -3.327  21.357  1.00  0.00     0.076 C 
ATOM      3  CG  HYP A   1     -15.406  -2.416  22.633  1.00  0.00     0.146 C 
ATOM      4  CD  HYP A   1     -15.818  -1.170  21.631  1.00  0.00     0.264 C 
ATOM      5  N   HYP A   1     -16.913  -2.058  21.233  1.00  0.00    -0.059 N 
ATOM      6  H1  HYP A   1     -17.706  -1.580  20.804  1.00  0.00     0.278 HD
ATOM      7  H2  HYP A   1     -17.419  -2.604  21.930  1.00  0.00     0.278 HD
ENDROOT
BRANCH   1   8
ATOM      8  C   HYP A   1     -16.860  -4.107  20.171  1.00  0.00     0.320 C 
ATOM      9  O   HYP A   1     -16.181  -4.993  20.484  1.00  0.00    -0.260 OA
ATOM     10  OXT HYP A   1     -16.963  -4.438  18.822  1.00  0.00    -0.148 OA
ENDBRANCH   1   8
BRANCH   3  11
ATOM     11  OD  HYP A   1     -14.014  -1.841  22.854  1.00  0.00    -0.394 OA
ATOM     12  HD  HYP A   1     -13.865  -1.109  22.236  1.00  0.00     0.210 HD
ENDBRANCH   3  11
TORSDOF 2
ENDMDL
