MODEL 1
REMARK VINA RESULT:      -6.3      0.000      0.000
REMARK  14 active torsions:
REMARK  status: ('A' for Active; 'I' for Inactive)
REMARK    1  A    between atoms: C_2  and  C_3 
REMARK    2  A    between atoms: C_3  and  C_4 
REMARK    3  A    between atoms: C_4  and  C_5 
REMARK    4  A    between atoms: C_5  and  C_6 
REMARK    5  A    between atoms: C_6  and  O_7 
REMARK    6  A    between atoms: C_6  and  C_8 
REMARK    7  A    between atoms: C_8  and  C_9 
REMARK    8  A    between atoms: C_9  and  C_10 
REMARK    9  A    between atoms: C_11  and  O_12 
REMARK   10  A    between atoms: C_16  and  C_17 
REMARK   11  A    between atoms: C_17  and  C_18 
REMARK   12  A    between atoms: C_18  and  C_19 
REMARK   13  A    between atoms: C_19  and  C_20 
REMARK   14  A    between atoms: C_20  and  C_21 
ROOT
HETATM    1  C   UNL     1     -17.931 -10.485  21.699  1.00  0.00     0.043 C 
HETATM    2  C   UNL     1     -17.668 -11.975  20.943  1.00  0.00     0.128 C 
HETATM    3  C   UNL     1     -18.894 -12.430  21.933  1.00  0.00     0.065 C 
HETATM    4  C   UNL     1     -17.736 -12.599  23.071  1.00  0.00     0.130 C 
HETATM    5  O   UNL     1     -18.734 -12.497  24.225  1.00  0.00    -0.371 OA
HETATM    6  C   UNL     1     -19.508 -11.405  23.971  1.00  0.00     0.097 C 
HETATM    7  C   UNL     1     -18.483 -10.396  23.970  1.00  0.00     0.049 C 
HETATM    8  C   UNL     1     -17.252 -10.981  23.141  1.00  0.00     0.028 C 
ENDROOT
BRANCH   1   9
HETATM    9  C   UNL     1     -16.558  -9.895  21.151  1.00  0.00    -0.021 C 
BRANCH   9  10
HETATM   10  C   UNL     1     -16.750  -8.614  21.058  1.00  0.00     0.001 C 
BRANCH  10  11
HETATM   11  C   UNL     1     -15.528  -7.615  21.425  1.00  0.00     0.140 C 
BRANCH  11  12
HETATM   12  C   UNL     1     -14.500  -8.906  21.582  1.00  0.00     0.036 C 
BRANCH  12  13
HETATM   13  C   UNL     1     -13.164  -8.255  21.232  1.00  0.00     0.003 C 
BRANCH  13  14
HETATM   14  C   UNL     1     -12.241  -9.428  20.919  1.00  0.00    -0.000 C 
BRANCH  14  15
HETATM   15  C   UNL     1     -10.878  -8.918  20.636  1.00  0.00    -0.005 C 
HETATM   16  C   UNL     1     -10.062  -9.801  20.536  1.00  0.00     0.005 C 
ENDBRANCH  14  15
ENDBRANCH  13  14
ENDBRANCH  12  13
ENDBRANCH  11  12
BRANCH  11  17
HETATM   17  O   UNL     1     -15.838  -7.638  22.919  1.00  0.00    -0.392 OA
HETATM   18  H   UNL     1     -15.477  -6.841  23.337  1.00  0.00     0.210 HD
ENDBRANCH  11  17
ENDBRANCH  10  11
ENDBRANCH   9  10
ENDBRANCH   1   9
BRANCH   2  19
HETATM   19  O   UNL     1     -18.613 -11.594  19.819  1.00  0.00    -0.395 OA
HETATM   20  H   UNL     1     -18.883 -10.669  19.924  1.00  0.00     0.210 HD
ENDBRANCH   2  19
BRANCH   6  21
HETATM   21  C   UNL     1     -20.555 -11.143  24.766  1.00  0.00     0.030 C 
BRANCH  21  22
HETATM   22  C   UNL     1     -21.793 -11.937  24.700  1.00  0.00     0.009 C 
BRANCH  22  23
HETATM   23  C   UNL     1     -23.015 -11.122  24.380  1.00  0.00     0.011 C 
BRANCH  23  24
HETATM   24  C   UNL     1     -23.916 -10.927  25.560  1.00  0.00     0.113 C 
BRANCH  24  25
HETATM   25  C   UNL     1     -23.462  -9.832  26.463  1.00  0.00     0.172 C 
HETATM   26  O   UNL     1     -23.004 -10.190  27.590  1.00  0.00    -0.648 OA
HETATM   27  O   UNL     1     -22.995  -8.662  25.884  1.00  0.00    -0.648 OA
ENDBRANCH  24  25
ENDBRANCH  23  24
ENDBRANCH  22  23
ENDBRANCH  21  22
ENDBRANCH   6  21
TORSDOF 14
ENDMDL
MODEL 2
REMARK VINA RESULT:      -6.2      4.162      6.684
REMARK  14 active torsions:
REMARK  status: ('A' for Active; 'I' for Inactive)
REMARK    1  A    between atoms: C_2  and  C_3 
REMARK    2  A    between atoms: C_3  and  C_4 
REMARK    3  A    between atoms: C_4  and  C_5 
REMARK    4  A    between atoms: C_5  and  C_6 
REMARK    5  A    between atoms: C_6  and  O_7 
REMARK    6  A    between atoms: C_6  and  C_8 
REMARK    7  A    between atoms: C_8  and  C_9 
REMARK    8  A    between atoms: C_9  and  C_10 
REMARK    9  A    between atoms: C_11  and  O_12 
REMARK   10  A    between atoms: C_16  and  C_17 
REMARK   11  A    between atoms: C_17  and  C_18 
REMARK   12  A    between atoms: C_18  and  C_19 
REMARK   13  A    between atoms: C_19  and  C_20 
REMARK   14  A    between atoms: C_20  and  C_21 
ROOT
HETATM    1  C   UNL     1     -15.566 -10.456  20.917  1.00  0.00     0.043 C 
HETATM    2  C   UNL     1     -17.167 -10.663  21.422  1.00  0.00     0.128 C 
HETATM    3  C   UNL     1     -17.132  -9.023  21.429  1.00  0.00     0.065 C 
HETATM    4  C   UNL     1     -16.458  -9.177  22.908  1.00  0.00     0.130 C 
HETATM    5  O   UNL     1     -15.848  -7.775  22.869  1.00  0.00    -0.371 OA
HETATM    6  C   UNL     1     -15.217  -7.660  21.666  1.00  0.00     0.097 C 
HETATM    7  C   UNL     1     -14.265  -8.727  21.807  1.00  0.00     0.049 C 
HETATM    8  C   UNL     1     -15.046  -9.973  22.428  1.00  0.00     0.028 C 
ENDROOT
BRANCH   1   9
HETATM    9  C   UNL     1     -15.219 -11.985  21.186  1.00  0.00    -0.021 C 
BRANCH   9  10
HETATM   10  C   UNL     1     -13.922 -12.037  21.232  1.00  0.00     0.001 C 
BRANCH  10  11
HETATM   11  C   UNL     1     -13.154 -13.138  20.323  1.00  0.00     0.140 C 
BRANCH  11  12
HETATM   12  C   UNL     1     -11.689 -12.501  20.765  1.00  0.00     0.036 C 
BRANCH  12  13
HETATM   13  C   UNL     1     -11.692 -11.195  19.975  1.00  0.00     0.003 C 
BRANCH  13  14
HETATM   14  C   UNL     1     -10.226 -10.774  19.931  1.00  0.00    -0.000 C 
BRANCH  14  15
HETATM   15  C   UNL     1     -10.063  -9.485  20.644  1.00  0.00    -0.005 C 
HETATM   16  C   UNL     1     -11.041  -8.783  20.567  1.00  0.00     0.005 C 
ENDBRANCH  14  15
ENDBRANCH  13  14
ENDBRANCH  12  13
ENDBRANCH  11  12
BRANCH  11  17
HETATM   17  O   UNL     1     -13.193 -12.265  19.072  1.00  0.00    -0.392 OA
HETATM   18  H   UNL     1     -12.315 -11.884  18.916  1.00  0.00     0.210 HD
ENDBRANCH  11  17
ENDBRANCH  10  11
ENDBRANCH   9  10
ENDBRANCH   1   9
BRANCH   2  19
HETATM   19  O   UNL     1     -17.634 -10.724  19.979  1.00  0.00    -0.395 OA
HETATM   20  H   UNL     1     -17.140 -11.412  19.508  1.00  0.00     0.210 HD
ENDBRANCH   2  19
BRANCH   6  21
HETATM   21  C   UNL     1     -14.692  -6.479  21.311  1.00  0.00     0.030 C 
BRANCH  21  22
HETATM   22  C   UNL     1     -14.646  -5.342  22.243  1.00  0.00     0.009 C 
BRANCH  22  23
HETATM   23  C   UNL     1     -14.677  -4.002  21.562  1.00  0.00     0.011 C 
BRANCH  23  24
HETATM   24  C   UNL     1     -15.867  -3.177  21.943  1.00  0.00     0.113 C 
BRANCH  24  25
HETATM   25  C   UNL     1     -16.709  -2.798  20.773  1.00  0.00     0.172 C 
HETATM   26  O   UNL     1     -17.166  -1.615  20.772  1.00  0.00    -0.648 OA
HETATM   27  O   UNL     1     -16.464  -3.429  19.563  1.00  0.00    -0.648 OA
ENDBRANCH  24  25
ENDBRANCH  23  24
ENDBRANCH  22  23
ENDBRANCH  21  22
ENDBRANCH   6  21
TORSDOF 14
ENDMDL
MODEL 3
REMARK VINA RESULT:      -6.2      2.615      7.861
REMARK  14 active torsions:
REMARK  status: ('A' for Active; 'I' for Inactive)
REMARK    1  A    between atoms: C_2  and  C_3 
REMARK    2  A    between atoms: C_3  and  C_4 
REMARK    3  A    between atoms: C_4  and  C_5 
REMARK    4  A    between atoms: C_5  and  C_6 
REMARK    5  A    between atoms: C_6  and  O_7 
REMARK    6  A    between atoms: C_6  and  C_8 
REMARK    7  A    between atoms: C_8  and  C_9 
REMARK    8  A    between atoms: C_9  and  C_10 
REMARK    9  A    between atoms: C_11  and  O_12 
REMARK   10  A    between atoms: C_16  and  C_17 
REMARK   11  A    between atoms: C_17  and  C_18 
REMARK   12  A    between atoms: C_18  and  C_19 
REMARK   13  A    between atoms: C_19  and  C_20 
REMARK   14  A    between atoms: C_20  and  C_21 
ROOT
HETATM    1  C   UNL     1     -16.108 -10.507  22.549  1.00  0.00     0.043 C 
HETATM    2  C   UNL     1     -15.844 -10.784  24.197  1.00  0.00     0.128 C 
HETATM    3  C   UNL     1     -14.278 -10.626  23.734  1.00  0.00     0.065 C 
HETATM    4  C   UNL     1     -14.386 -12.197  23.303  1.00  0.00     0.130 C 
HETATM    5  O   UNL     1     -13.196 -12.104  22.347  1.00  0.00    -0.371 OA
HETATM    6  C   UNL     1     -13.408 -11.005  21.570  1.00  0.00     0.097 C 
HETATM    7  C   UNL     1     -14.646 -11.398  20.955  1.00  0.00     0.049 C 
HETATM    8  C   UNL     1     -15.563 -12.020  22.103  1.00  0.00     0.028 C 
ENDROOT
BRANCH   1   9
HETATM    9  C   UNL     1     -17.623 -10.982  22.649  1.00  0.00    -0.021 C 
BRANCH   9  10
HETATM   10  C   UNL     1     -18.286 -10.173  21.880  1.00  0.00     0.001 C 
BRANCH  10  11
HETATM   11  C   UNL     1     -19.759 -10.615  21.368  1.00  0.00     0.140 C 
BRANCH  11  12
HETATM   12  C   UNL     1     -19.774 -11.871  22.451  1.00  0.00     0.036 C 
BRANCH  12  13
HETATM   13  C   UNL     1     -21.113 -11.638  23.145  1.00  0.00     0.003 C 
BRANCH  13  14
HETATM   14  C   UNL     1     -20.739 -11.167  24.546  1.00  0.00    -0.000 C 
BRANCH  14  15
HETATM   15  C   UNL     1     -21.971 -10.811  25.290  1.00  0.00    -0.005 C 
HETATM   16  C   UNL     1     -21.740 -10.241  26.328  1.00  0.00     0.005 C 
ENDBRANCH  14  15
ENDBRANCH  13  14
ENDBRANCH  12  13
ENDBRANCH  11  12
BRANCH  11  17
HETATM   17  O   UNL     1     -19.206 -11.523  20.274  1.00  0.00    -0.392 OA
HETATM   18  H   UNL     1     -19.506 -11.205  19.408  1.00  0.00     0.210 HD
ENDBRANCH  11  17
ENDBRANCH  10  11
ENDBRANCH   9  10
ENDBRANCH   1   9
BRANCH   2  19
HETATM   19  O   UNL     1     -15.988  -9.302  24.488  1.00  0.00    -0.395 OA
HETATM   20  H   UNL     1     -16.172  -8.826  23.664  1.00  0.00     0.210 HD
ENDBRANCH   2  19
BRANCH   6  21
HETATM   21  C   UNL     1     -12.453 -10.611  20.716  1.00  0.00     0.030 C 
BRANCH  21  22
HETATM   22  C   UNL     1     -12.015  -9.208  20.639  1.00  0.00     0.009 C 
BRANCH  22  23
HETATM   23  C   UNL     1     -12.745  -8.296  21.586  1.00  0.00     0.011 C 
BRANCH  23  24
HETATM   24  C   UNL     1     -13.538  -7.237  20.885  1.00  0.00     0.113 C 
BRANCH  24  25
HETATM   25  C   UNL     1     -14.967  -7.205  21.309  1.00  0.00     0.172 C 
HETATM   26  O   UNL     1     -15.178  -7.070  22.553  1.00  0.00    -0.648 OA
HETATM   27  O   UNL     1     -15.902  -6.721  20.408  1.00  0.00    -0.648 OA
ENDBRANCH  24  25
ENDBRANCH  23  24
ENDBRANCH  22  23
ENDBRANCH  21  22
ENDBRANCH   6  21
TORSDOF 14
ENDMDL
