REMARK  7 active torsions:
REMARK  status: ('A' for Active; 'I' for Inactive)
REMARK    1  A    between atoms: N_1  and  CA_2 
REMARK    2  A    between atoms: CA_2  and  C_3 
REMARK    3  A    between atoms: CA_2  and  C_21 
REMARK    4  A    between atoms: C_3  and  C_4 
REMARK    5  A    between atoms: C_8  and  O_9 
REMARK    6  A    between atoms: O_9  and  C_10 
REMARK    7  A    between atoms: C_13  and  O_14 
ROOT
HETATM    1  C   UNL     1       2.209   0.162  -0.558  1.00  0.00    -0.053 C 
HETATM    2  C   UNL     1       1.780  -0.277   0.685  1.00  0.00     0.028 C 
HETATM    3  C   UNL     1       0.657  -1.027   0.894  1.00  0.00     0.042 C 
HETATM    4  I   UNL     1       0.247  -1.983   2.736  1.00  0.00    -0.042 I 
HETATM    5  C   UNL     1      -0.127  -1.377  -0.200  1.00  0.00     0.109 C 
HETATM    6  C   UNL     1       0.130  -0.749  -1.403  1.00  0.00     0.042 C 
HETATM    7  I   UNL     1      -1.188  -1.000  -3.032  1.00  0.00    -0.042 I 
HETATM    8  C   UNL     1       1.258   0.048  -1.569  1.00  0.00     0.028 C 
ENDROOT
BRANCH   5   9
HETATM    9  O   UNL     1      -1.396  -1.837   0.100  1.00  0.00    -0.308 OA
BRANCH   9  10
HETATM   10  C   UNL     1      -2.337  -1.008   0.725  1.00  0.00     0.077 C 
HETATM   11  C   UNL     1      -2.066   0.311   1.038  1.00  0.00     0.040 C 
HETATM   12  C   UNL     1      -2.966   1.336   0.768  1.00  0.00     0.040 C 
HETATM   13  C   UNL     1      -4.228   1.005   0.287  1.00  0.00     0.082 C 
HETATM   14  C   UNL     1      -4.619  -0.309   0.519  1.00  0.00     0.042 C 
HETATM   15  I   UNL     1      -6.696  -0.665   0.576  1.00  0.00    -0.042 I 
HETATM   16  C   UNL     1      -3.687  -1.333   0.641  1.00  0.00     0.058 C 
BRANCH  13  17
HETATM   17  O   UNL     1      -4.895   1.755  -0.661  1.00  0.00    -0.359 OA
HETATM   18  H   UNL     1      -4.638   2.641  -0.823  1.00  0.00     0.217 HD
ENDBRANCH  13  17
ENDBRANCH   9  10
ENDBRANCH   5   9
BRANCH   1  19
HETATM   19  C   UNL     1       3.673   0.069  -0.873  1.00  0.00     0.082 C 
BRANCH  19  20
HETATM   20  CA  UNL     1       4.181   1.664  -0.854  1.00  0.00     0.287 C 
BRANCH  20  21
HETATM   21  N   UNL     1       5.558   1.287  -1.590  1.00  0.00    -0.065 N 
HETATM   22  H1  UNL     1       5.421   1.309  -2.600  1.00  0.00     0.275 HD
HETATM   23  H2  UNL     1       5.850   0.351  -1.307  1.00  0.00     0.275 HD
HETATM   24  H3  UNL     1       6.279   1.960  -1.330  1.00  0.00     0.275 HD
ENDBRANCH  20  21
BRANCH  20  25
HETATM   25  C   UNL     1       4.843   1.508   0.640  1.00  0.00     0.204 C 
HETATM   26  O   UNL     1       4.058   2.004   1.487  1.00  0.00    -0.646 OA
HETATM   27  OXT UNL     1       5.612   0.417   0.857  1.00  0.00    -0.646 OA
ENDBRANCH  20  25
ENDBRANCH  19  20
ENDBRANCH   1  19
TORSDOF 7
