REMARK  6 active torsions:
REMARK  status: ('A' for Active; 'I' for Inactive)
REMARK    1  A    between atoms: C_2  and  C_3 
REMARK    2  A    between atoms: C_2  and  C_8 
REMARK    3  A    between atoms: C_3  and  C_4 
REMARK    4  A    between atoms: C_4  and  C_5 
REMARK    5  A    between atoms: C_13  and  O_14 
REMARK    6  A    between atoms: C_18  and  O_19 
ROOT
HETATM    1  C   UNL     1       2.129  -1.223  -0.281  1.00  0.00    -0.002 C 
HETATM    2  C   UNL     1       2.312  -0.849   1.281  1.00  0.00     0.006 C 
HETATM    3  C   UNL     1       1.058  -0.185   1.663  1.00  0.00     0.006 C 
HETATM    4  C   UNL     1       0.136  -0.685   0.432  1.00  0.00     0.001 C 
HETATM    5  C   UNL     1      -0.981   0.585   0.366  1.00  0.00     0.024 C 
HETATM    6  C   UNL     1      -1.638  -0.115   1.752  1.00  0.00     0.123 C 
HETATM    7  C   UNL     1      -3.223   0.217   1.562  1.00  0.00     0.037 C 
HETATM    8  C   UNL     1      -3.316   1.370   0.414  1.00  0.00    -0.001 C 
HETATM    9  C   UNL     1      -4.941   1.097   0.558  1.00  0.00     0.037 C 
HETATM   10  C   UNL     1      -5.557   1.553  -0.875  1.00  0.00     0.118 C 
HETATM   11  C   UNL     1      -5.545   0.010  -1.456  1.00  0.00     0.032 C 
HETATM   12  C   UNL     1      -4.179  -0.548  -0.975  1.00  0.00     0.012 C 
HETATM   13  C   UNL     1      -3.121   0.491  -0.940  1.00  0.00    -0.036 C 
HETATM   14  C   UNL     1      -3.059   1.535  -2.006  1.00  0.00     0.016 C 
HETATM   15  C   UNL     1      -1.730  -0.302  -0.847  1.00  0.00     0.001 C 
HETATM   16  C   UNL     1      -0.848   0.558  -1.930  1.00  0.00     0.007 C 
HETATM   17  C   UNL     1       0.558  -0.056  -1.911  1.00  0.00     0.010 C 
HETATM   18  C   UNL     1       1.154   0.026  -0.587  1.00  0.00    -0.036 C 
HETATM   19  C   UNL     1       1.676   1.258  -0.057  1.00  0.00     0.016 C 
ENDROOT
BRANCH   1  20
HETATM   20  C   UNL     1       3.502  -0.361  -0.742  1.00  0.00    -0.013 C 
HETATM   21  C   UNL     1       3.614  -1.197  -2.123  1.00  0.00     0.010 C 
BRANCH  20  22
HETATM   22  C   UNL     1       4.502  -1.349   0.056  1.00  0.00     0.015 C 
BRANCH  22  23
HETATM   23  C   UNL     1       5.482  -0.437   0.778  1.00  0.00     0.113 C 
BRANCH  23  24
HETATM   24  C   UNL     1       6.654  -0.356  -0.128  1.00  0.00     0.172 C 
HETATM   25  O   UNL     1       6.760   0.565  -0.984  1.00  0.00    -0.648 OA
HETATM   26  O   UNL     1       7.424  -1.489  -0.334  1.00  0.00    -0.648 OA
ENDBRANCH  23  24
ENDBRANCH  22  23
ENDBRANCH  20  22
ENDBRANCH   1  20
BRANCH   6  27
HETATM   27  O   UNL     1      -1.826  -1.517   1.150  1.00  0.00    -0.395 OA
HETATM   28  H   UNL     1      -2.299  -1.446   0.306  1.00  0.00     0.210 HD
ENDBRANCH   6  27
BRANCH  10  29
HETATM   29  O   UNL     1      -6.995   1.403  -0.388  1.00  0.00    -0.396 OA
HETATM   30  H   UNL     1      -7.091   0.560   0.082  1.00  0.00     0.210 HD
ENDBRANCH  10  29
TORSDOF 6
