REMARK  2 active torsions:
REMARK  status: ('A' for Active; 'I' for Inactive)
REMARK    1  A    between atoms: C_2  and  C_3 
REMARK    2  A    between atoms: C_2  and  C_9 
ROOT
HETATM    1  O   UNL     1       0.290  -1.562  -1.907  1.00  0.00    -0.287 OA
HETATM    2  C   UNL     1       0.140  -1.192  -0.703  1.00  0.00     0.192 C 
ENDROOT
BRANCH   2   3
HETATM    3  C   UNL     1      -1.231  -0.810  -0.342  1.00  0.00     0.015 A 
HETATM    4  C   UNL     1      -1.566  -0.727   1.000  1.00  0.00     0.015 A 
HETATM    5  C   UNL     1      -2.636   0.013   1.442  1.00  0.00     0.001 A 
HETATM    6  C   UNL     1      -3.386   0.765   0.560  1.00  0.00     0.000 A 
HETATM    7  C   UNL     1      -3.016   0.778  -0.780  1.00  0.00     0.001 A 
HETATM    8  C   UNL     1      -1.956   0.006  -1.200  1.00  0.00     0.015 A 
ENDBRANCH   2   3
BRANCH   2   9
HETATM    9  C   UNL     1       1.227  -0.351  -0.187  1.00  0.00     0.015 C 
HETATM   10  C   UNL     1       0.972   0.976   0.132  1.00  0.00     0.015 C 
HETATM   11  C   UNL     1       1.905   1.617   0.932  1.00  0.00     0.001 C 
HETATM   12  C   UNL     1       3.242   1.339   0.670  1.00  0.00     0.000 C 
HETATM   13  C   UNL     1       3.520   0.016   0.348  1.00  0.00     0.001 C 
HETATM   14  C   UNL     1       2.496  -0.868   0.034  1.00  0.00     0.015 C 
ENDBRANCH   2   9
TORSDOF 2
