REMARK  2 active torsions:
REMARK  status: ('A' for Active; 'I' for Inactive)
REMARK    1  A    between atoms: C_2  and  C_4 
REMARK    2  A    between atoms: C_10  and  O_11 
ROOT
HETATM    1  C   UNL     1       0.543  -0.426   0.811  1.00  0.00     0.018 C 
HETATM    2  C   UNL     1      -0.456  -1.210  -0.200  1.00  0.00     0.008 C 
HETATM    3  C   UNL     1      -0.771  -0.343  -1.353  1.00  0.00     0.005 C 
HETATM    4  C   UNL     1      -2.046   0.576  -0.872  1.00  0.00    -0.016 C 
HETATM    5  C   UNL     1      -2.896  -0.727  -0.338  1.00  0.00     0.010 C 
HETATM    6  C   UNL     1      -1.459   0.872   0.632  1.00  0.00     0.036 C 
HETATM    7  C   UNL     1       0.124   1.157   0.271  1.00  0.00     0.122 C 
ENDROOT
BRANCH   1   8
HETATM    8  C   UNL     1       1.742  -0.581  -0.269  1.00  0.00    -0.016 C 
HETATM    9  C   UNL     1       2.428  -1.736   0.202  1.00  0.00     0.010 C 
HETATM   10  C   UNL     1       2.406   0.661  -0.530  1.00  0.00     0.010 C 
ENDBRANCH   1   8
BRANCH   7  11
HETATM   11  O   UNL     1       0.387   1.757   1.645  1.00  0.00    -0.395 OA
HETATM   12  H   UNL     1      -0.015   1.195   2.325  1.00  0.00     0.210 HD
ENDBRANCH   7  11
TORSDOF 2
