REMARK  2 active torsions:
REMARK  status: ('A' for Active; 'I' for Inactive)
REMARK    1  A    between atoms: C_2  and  CA_4 
REMARK    2  A    between atoms: CG_6  and  OD_7 
ROOT
ATOM      1  CA  HYP A   1      -0.122  -0.037   0.752  1.00  0.00     0.288 C 
ATOM      2  CB  HYP A   1       0.405  -0.825  -0.611  1.00  0.00     0.077 C 
ATOM      3  CG  HYP A   1       1.900  -0.065  -0.683  1.00  0.00     0.146 C 
ATOM      4  CD  HYP A   1       1.471   1.161   0.378  1.00  0.00     0.265 C 
ATOM      5  N   HYP A   1       0.112   1.361  -0.008  1.00  0.00    -0.059 N 
ATOM      6  H1  HYP A   1      -0.065   1.350  -1.012  1.00  0.00     0.278 HD
ATOM      7  H2  HYP A   1      -0.415   2.211   0.193  1.00  0.00     0.278 HD
ENDROOT
BRANCH   1   8
ATOM      8  C   HYP A   1      -1.689  -0.107   0.259  1.00  0.00     0.204 C 
ATOM      9  O   HYP A   1      -2.241   0.755   0.291  1.00  0.00    -0.646 OA
ATOM     10  OXT HYP A   1      -2.276  -1.300   0.708  1.00  0.00    -0.646 OA
ENDBRANCH   1   8
BRANCH   3  11
ATOM     11  OD  HYP A   1       2.439  -0.944   0.473  1.00  0.00    -0.394 OA
ATOM     12  HD  HYP A   1       1.793  -0.959   1.196  1.00  0.00     0.210 HD
ENDBRANCH   3  11
TORSDOF 2
