REMARK  4 active torsions:
REMARK  status: ('A' for Active; 'I' for Inactive)
REMARK    1  A    between atoms: CB_2  and  OG1_3 
REMARK    2  A    between atoms: CB_2  and  CA_4 
REMARK    3  A    between atoms: CA_4  and  N_5 
REMARK    4  A    between atoms: CA_4  and  C_6 
ROOT
ATOM      1  CA  THR A   1       0.030  -0.753   0.666  1.00  0.00     0.311 C 
ENDROOT
BRANCH   1   2
ATOM      2  CB  THR A   1       1.079   0.618   0.723  1.00  0.00     0.155 C 
ATOM      3  CG2 THR A   1       2.396  -0.247   0.278  1.00  0.00     0.042 C 
BRANCH   2   4
ATOM      4  OG1 THR A   1       0.825   1.078  -0.689  1.00  0.00    -0.393 OA
ATOM      5  HG1 THR A   1       0.886   0.320  -1.292  1.00  0.00     0.210 HD
ENDBRANCH   2   4
ENDBRANCH   1   2
BRANCH   1   6
ATOM      6  N   THR A   1       0.480  -1.280  -0.740  1.00  0.00    -0.063 N 
ATOM      7  H1  THR A   1       0.504  -0.504  -1.402  1.00  0.00     0.275 HD
ATOM      8  H2  THR A   1      -0.181  -1.985  -1.067  1.00  0.00     0.275 HD
ATOM      9  H3  THR A   1       1.410  -1.694  -0.667  1.00  0.00     0.275 HD
ENDBRANCH   1   6
BRANCH   1  10
ATOM     10  C   THR A   1      -1.205   0.102   0.125  1.00  0.00     0.207 C 
ATOM     11  O   THR A   1      -2.235   0.110   0.823  1.00  0.00    -0.646 OA
ATOM     12  OXT THR A   1      -1.371   0.372  -1.185  1.00  0.00    -0.646 OA
ENDBRANCH   1  10
TORSDOF 4
