REMARK  14 active torsions:
REMARK  status: ('A' for Active; 'I' for Inactive)
REMARK    1  A    between atoms: C_2  and  C_3 
REMARK    2  A    between atoms: C_3  and  C_4 
REMARK    3  A    between atoms: C_4  and  C_5 
REMARK    4  A    between atoms: C_5  and  C_6 
REMARK    5  A    between atoms: C_6  and  O_7 
REMARK    6  A    between atoms: C_6  and  C_8 
REMARK    7  A    between atoms: C_8  and  C_9 
REMARK    8  A    between atoms: C_9  and  C_10 
REMARK    9  A    between atoms: C_11  and  O_12 
REMARK   10  A    between atoms: C_16  and  C_17 
REMARK   11  A    between atoms: C_17  and  C_18 
REMARK   12  A    between atoms: C_18  and  C_19 
REMARK   13  A    between atoms: C_19  and  C_20 
REMARK   14  A    between atoms: C_20  and  C_21 
ROOT
HETATM    1  C   UNL     1       0.525  -0.016  -1.368  1.00  0.00     0.043 C 
HETATM    2  C   UNL     1      -0.301  -0.446  -2.780  1.00  0.00     0.128 C 
HETATM    3  C   UNL     1      -1.559   0.228  -1.971  1.00  0.00     0.065 C 
HETATM    4  C   UNL     1      -1.692  -1.224  -1.237  1.00  0.00     0.130 C 
HETATM    5  O   UNL     1      -2.464  -0.648  -0.049  1.00  0.00    -0.371 OA
HETATM    6  C   UNL     1      -1.768   0.445   0.372  1.00  0.00     0.097 C 
HETATM    7  C   UNL     1      -0.527  -0.195   0.714  1.00  0.00     0.049 C 
HETATM    8  C   UNL     1      -0.190  -1.221  -0.461  1.00  0.00     0.028 C 
ENDROOT
BRANCH   1   9
HETATM    9  C   UNL     1       1.776  -0.921  -1.751  1.00  0.00    -0.021 C 
BRANCH   9  10
HETATM   10  C   UNL     1       2.802  -0.326  -1.222  1.00  0.00     0.001 C 
BRANCH  10  11
HETATM   11  C   UNL     1       4.231  -0.414  -1.982  1.00  0.00     0.140 C 
BRANCH  11  12
HETATM   12  C   UNL     1       4.930   0.523  -0.807  1.00  0.00     0.036 C 
BRANCH  12  13
HETATM   13  C   UNL     1       4.962  -0.457   0.363  1.00  0.00     0.003 C 
BRANCH  13  14
HETATM   14  C   UNL     1       6.447  -0.690   0.623  1.00  0.00    -0.000 C 
BRANCH  14  15
HETATM   15  C   UNL     1       6.829  -0.043   1.901  1.00  0.00    -0.005 C 
HETATM   16  C   UNL     1       7.971  -0.272   2.216  1.00  0.00     0.005 C 
ENDBRANCH  14  15
ENDBRANCH  13  14
ENDBRANCH  12  13
ENDBRANCH  11  12
BRANCH  11  17
HETATM   17  O   UNL     1       3.952   0.815  -2.842  1.00  0.00    -0.392 OA
HETATM   18  H   UNL     1       3.584   1.521  -2.288  1.00  0.00     0.210 HD
ENDBRANCH  11  17
ENDBRANCH  10  11
ENDBRANCH   9  10
ENDBRANCH   1   9
BRANCH   2  19
HETATM   19  O   UNL     1       0.086   0.869  -3.430  1.00  0.00    -0.395 OA
HETATM   20  H   UNL     1       0.010   1.585  -2.781  1.00  0.00     0.210 HD
ENDBRANCH   2  19
BRANCH   6  21
HETATM   21  C   UNL     1      -2.285   1.222   1.334  1.00  0.00     0.030 C 
BRANCH  21  22
HETATM   22  C   UNL     1      -3.680   1.689   1.284  1.00  0.00     0.009 C 
BRANCH  22  23
HETATM   23  C   UNL     1      -4.660   0.619   0.892  1.00  0.00     0.011 C 
BRANCH  23  24
HETATM   24  C   UNL     1      -5.024  -0.288   2.027  1.00  0.00     0.113 C 
BRANCH  24  25
HETATM   25  C   UNL     1      -6.372   0.002   2.593  1.00  0.00     0.172 C 
HETATM   26  O   UNL     1      -7.299   0.210   1.753  1.00  0.00    -0.648 OA
HETATM   27  O   UNL     1      -6.689  -0.540   3.829  1.00  0.00    -0.648 OA
ENDBRANCH  24  25
ENDBRANCH  23  24
ENDBRANCH  22  23
ENDBRANCH  21  22
ENDBRANCH   6  21
TORSDOF 14
